
---------- Begin Simulation Statistics ----------
sim_seconds                                  0.223719                       # Number of seconds simulated
sim_ticks                                223719221502                       # Number of ticks simulated
final_tick                               223719221502                       # Number of ticks from beginning of simulation (restored from checkpoints and never reset)
sim_freq                                 1000000000000                       # Frequency of simulated ticks
host_inst_rate                                 197752                       # Simulator instruction rate (inst/s)
host_op_rate                                   225214                       # Simulator op (including micro ops) rate (op/s)
host_tick_rate                              373230209                       # Simulator tick rate (ticks/s)
host_mem_usage                                1192120                       # Number of bytes of host memory used
host_seconds                                   599.41                       # Real time elapsed on the host
sim_insts                                   118535130                       # Number of instructions simulated
sim_ops                                     134996194                       # Number of ops (including micro ops) simulated
system.voltage_domain.voltage                       1                       # Voltage in Volts
system.clk_domain.clock                          1000                       # Clock period in ticks
system.mem_ctrls.pwrStateResidencyTicks::UNDEFINED 223719221502                       # Cumulative time (in ticks) in various power states
system.mem_ctrls.bytes_read::cpu.inst       287351424                       # Number of bytes read from this memory
system.mem_ctrls.bytes_read::cpu.data        34527232                       # Number of bytes read from this memory
system.mem_ctrls.bytes_read::total          321878656                       # Number of bytes read from this memory
system.mem_ctrls.bytes_inst_read::cpu.inst    287351424                       # Number of instructions bytes read from this memory
system.mem_ctrls.bytes_inst_read::total     287351424                       # Number of instructions bytes read from this memory
system.mem_ctrls.bytes_written::writebacks     34513216                       # Number of bytes written to this memory
system.mem_ctrls.bytes_written::total        34513216                       # Number of bytes written to this memory
system.mem_ctrls.num_reads::cpu.inst          4489866                       # Number of read requests responded to by this memory
system.mem_ctrls.num_reads::cpu.data           539488                       # Number of read requests responded to by this memory
system.mem_ctrls.num_reads::total             5029354                       # Number of read requests responded to by this memory
system.mem_ctrls.num_writes::writebacks        539269                       # Number of write requests responded to by this memory
system.mem_ctrls.num_writes::total             539269                       # Number of write requests responded to by this memory
system.mem_ctrls.bw_read::cpu.inst         1284428857                       # Total read bandwidth from this memory (bytes/s)
system.mem_ctrls.bw_read::cpu.data          154332881                       # Total read bandwidth from this memory (bytes/s)
system.mem_ctrls.bw_read::total            1438761738                       # Total read bandwidth from this memory (bytes/s)
system.mem_ctrls.bw_inst_read::cpu.inst    1284428857                       # Instruction read bandwidth from this memory (bytes/s)
system.mem_ctrls.bw_inst_read::total       1284428857                       # Instruction read bandwidth from this memory (bytes/s)
system.mem_ctrls.bw_write::writebacks       154270231                       # Write bandwidth from this memory (bytes/s)
system.mem_ctrls.bw_write::total            154270231                       # Write bandwidth from this memory (bytes/s)
system.mem_ctrls.bw_total::writebacks       154270231                       # Total bandwidth to/from this memory (bytes/s)
system.mem_ctrls.bw_total::cpu.inst        1284428857                       # Total bandwidth to/from this memory (bytes/s)
system.mem_ctrls.bw_total::cpu.data         154332881                       # Total bandwidth to/from this memory (bytes/s)
system.mem_ctrls.bw_total::total           1593031969                       # Total bandwidth to/from this memory (bytes/s)
system.mem_ctrls.readReqs                     5029354                       # Number of read requests accepted
system.mem_ctrls.writeReqs                    5029299                       # Number of write requests accepted
system.mem_ctrls.readBursts                  10058708                       # Number of DRAM read bursts, including those serviced by the write queue
system.mem_ctrls.writeBursts                 10058598                       # Number of DRAM write bursts, including those merged in the write queue
system.mem_ctrls.bytesReadDRAM               34443296                       # Total number of bytes read from DRAM
system.mem_ctrls.bytesReadWrQ               287435360                       # Total number of bytes read from write queue
system.mem_ctrls.bytesWritten                38222656                       # Total number of bytes written to DRAM
system.mem_ctrls.bytesReadSys               321878656                       # Total read bytes from the system interface side
system.mem_ctrls.bytesWrittenSys            321875136                       # Total written bytes from the system interface side
system.mem_ctrls.servicedByWrQ                8982355                       # Number of DRAM read bursts serviced by the write queue
system.mem_ctrls.mergedWrBursts               8864117                       # Number of DRAM write bursts merged with an existing one
system.mem_ctrls.neitherReadNorWriteReqs            0                       # Number of requests that are neither read nor write
system.mem_ctrls.perBankRdBursts::0            161959                       # Per bank write bursts
system.mem_ctrls.perBankRdBursts::1            128108                       # Per bank write bursts
system.mem_ctrls.perBankRdBursts::2            128060                       # Per bank write bursts
system.mem_ctrls.perBankRdBursts::3            138639                       # Per bank write bursts
system.mem_ctrls.perBankRdBursts::4            133653                       # Per bank write bursts
system.mem_ctrls.perBankRdBursts::5            129476                       # Per bank write bursts
system.mem_ctrls.perBankRdBursts::6            128304                       # Per bank write bursts
system.mem_ctrls.perBankRdBursts::7            128154                       # Per bank write bursts
system.mem_ctrls.perBankWrBursts::0            197007                       # Per bank write bursts
system.mem_ctrls.perBankWrBursts::1            128118                       # Per bank write bursts
system.mem_ctrls.perBankWrBursts::2            128058                       # Per bank write bursts
system.mem_ctrls.perBankWrBursts::3            156044                       # Per bank write bursts
system.mem_ctrls.perBankWrBursts::4            199273                       # Per bank write bursts
system.mem_ctrls.perBankWrBursts::5            129466                       # Per bank write bursts
system.mem_ctrls.perBankWrBursts::6            128318                       # Per bank write bursts
system.mem_ctrls.perBankWrBursts::7            128174                       # Per bank write bursts
system.mem_ctrls.numRdRetry                         0                       # Number of times read queue was full causing retry
system.mem_ctrls.numWrRetry                         0                       # Number of times write queue was full causing retry
system.mem_ctrls.totGap                  223719208174                       # Total gap between requests
system.mem_ctrls.readPktSize::0                     0                       # Read request sizes (log2)
system.mem_ctrls.readPktSize::1                     0                       # Read request sizes (log2)
system.mem_ctrls.readPktSize::2                     0                       # Read request sizes (log2)
system.mem_ctrls.readPktSize::3                     0                       # Read request sizes (log2)
system.mem_ctrls.readPktSize::4                     0                       # Read request sizes (log2)
system.mem_ctrls.readPktSize::5              10058708                       # Read request sizes (log2)
system.mem_ctrls.writePktSize::0                    0                       # Write request sizes (log2)
system.mem_ctrls.writePktSize::1                    0                       # Write request sizes (log2)
system.mem_ctrls.writePktSize::2                    0                       # Write request sizes (log2)
system.mem_ctrls.writePktSize::3                    0                       # Write request sizes (log2)
system.mem_ctrls.writePktSize::4                    0                       # Write request sizes (log2)
system.mem_ctrls.writePktSize::5             10058598                       # Write request sizes (log2)
system.mem_ctrls.rdQLenPdf::0                  539736                       # What read queue length does an incoming req see
system.mem_ctrls.rdQLenPdf::1                  535227                       # What read queue length does an incoming req see
system.mem_ctrls.rdQLenPdf::2                     640                       # What read queue length does an incoming req see
system.mem_ctrls.rdQLenPdf::3                     545                       # What read queue length does an incoming req see
system.mem_ctrls.rdQLenPdf::4                      83                       # What read queue length does an incoming req see
system.mem_ctrls.rdQLenPdf::5                      81                       # What read queue length does an incoming req see
system.mem_ctrls.rdQLenPdf::6                      15                       # What read queue length does an incoming req see
system.mem_ctrls.rdQLenPdf::7                      14                       # What read queue length does an incoming req see
system.mem_ctrls.rdQLenPdf::8                       5                       # What read queue length does an incoming req see
system.mem_ctrls.rdQLenPdf::9                       5                       # What read queue length does an incoming req see
system.mem_ctrls.rdQLenPdf::10                      1                       # What read queue length does an incoming req see
system.mem_ctrls.rdQLenPdf::11                      1                       # What read queue length does an incoming req see
system.mem_ctrls.rdQLenPdf::12                      0                       # What read queue length does an incoming req see
system.mem_ctrls.rdQLenPdf::13                      0                       # What read queue length does an incoming req see
system.mem_ctrls.rdQLenPdf::14                      0                       # What read queue length does an incoming req see
system.mem_ctrls.rdQLenPdf::15                      0                       # What read queue length does an incoming req see
system.mem_ctrls.rdQLenPdf::16                      0                       # What read queue length does an incoming req see
system.mem_ctrls.rdQLenPdf::17                      0                       # What read queue length does an incoming req see
system.mem_ctrls.rdQLenPdf::18                      0                       # What read queue length does an incoming req see
system.mem_ctrls.rdQLenPdf::19                      0                       # What read queue length does an incoming req see
system.mem_ctrls.rdQLenPdf::20                      0                       # What read queue length does an incoming req see
system.mem_ctrls.rdQLenPdf::21                      0                       # What read queue length does an incoming req see
system.mem_ctrls.rdQLenPdf::22                      0                       # What read queue length does an incoming req see
system.mem_ctrls.rdQLenPdf::23                      0                       # What read queue length does an incoming req see
system.mem_ctrls.rdQLenPdf::24                      0                       # What read queue length does an incoming req see
system.mem_ctrls.rdQLenPdf::25                      0                       # What read queue length does an incoming req see
system.mem_ctrls.rdQLenPdf::26                      0                       # What read queue length does an incoming req see
system.mem_ctrls.rdQLenPdf::27                      0                       # What read queue length does an incoming req see
system.mem_ctrls.rdQLenPdf::28                      0                       # What read queue length does an incoming req see
system.mem_ctrls.rdQLenPdf::29                      0                       # What read queue length does an incoming req see
system.mem_ctrls.rdQLenPdf::30                      0                       # What read queue length does an incoming req see
system.mem_ctrls.rdQLenPdf::31                      0                       # What read queue length does an incoming req see
system.mem_ctrls.wrQLenPdf::0                       1                       # What write queue length does an incoming req see
system.mem_ctrls.wrQLenPdf::1                       1                       # What write queue length does an incoming req see
system.mem_ctrls.wrQLenPdf::2                       1                       # What write queue length does an incoming req see
system.mem_ctrls.wrQLenPdf::3                       1                       # What write queue length does an incoming req see
system.mem_ctrls.wrQLenPdf::4                       1                       # What write queue length does an incoming req see
system.mem_ctrls.wrQLenPdf::5                       1                       # What write queue length does an incoming req see
system.mem_ctrls.wrQLenPdf::6                       1                       # What write queue length does an incoming req see
system.mem_ctrls.wrQLenPdf::7                       1                       # What write queue length does an incoming req see
system.mem_ctrls.wrQLenPdf::8                       1                       # What write queue length does an incoming req see
system.mem_ctrls.wrQLenPdf::9                       1                       # What write queue length does an incoming req see
system.mem_ctrls.wrQLenPdf::10                      1                       # What write queue length does an incoming req see
system.mem_ctrls.wrQLenPdf::11                      1                       # What write queue length does an incoming req see
system.mem_ctrls.wrQLenPdf::12                      1                       # What write queue length does an incoming req see
system.mem_ctrls.wrQLenPdf::13                      1                       # What write queue length does an incoming req see
system.mem_ctrls.wrQLenPdf::14                      1                       # What write queue length does an incoming req see
system.mem_ctrls.wrQLenPdf::15                  46662                       # What write queue length does an incoming req see
system.mem_ctrls.wrQLenPdf::16                  49621                       # What write queue length does an incoming req see
system.mem_ctrls.wrQLenPdf::17                  66766                       # What write queue length does an incoming req see
system.mem_ctrls.wrQLenPdf::18                  72330                       # What write queue length does an incoming req see
system.mem_ctrls.wrQLenPdf::19                  69272                       # What write queue length does an incoming req see
system.mem_ctrls.wrQLenPdf::20                  67912                       # What write queue length does an incoming req see
system.mem_ctrls.wrQLenPdf::21                  67620                       # What write queue length does an incoming req see
system.mem_ctrls.wrQLenPdf::22                  67807                       # What write queue length does an incoming req see
system.mem_ctrls.wrQLenPdf::23                  67681                       # What write queue length does an incoming req see
system.mem_ctrls.wrQLenPdf::24                  68126                       # What write queue length does an incoming req see
system.mem_ctrls.wrQLenPdf::25                  67956                       # What write queue length does an incoming req see
system.mem_ctrls.wrQLenPdf::26                  66480                       # What write queue length does an incoming req see
system.mem_ctrls.wrQLenPdf::27                  66299                       # What write queue length does an incoming req see
system.mem_ctrls.wrQLenPdf::28                  66169                       # What write queue length does an incoming req see
system.mem_ctrls.wrQLenPdf::29                  66199                       # What write queue length does an incoming req see
system.mem_ctrls.wrQLenPdf::30                  66204                       # What write queue length does an incoming req see
system.mem_ctrls.wrQLenPdf::31                  66174                       # What write queue length does an incoming req see
system.mem_ctrls.wrQLenPdf::32                  66137                       # What write queue length does an incoming req see
system.mem_ctrls.wrQLenPdf::33                  19010                       # What write queue length does an incoming req see
system.mem_ctrls.wrQLenPdf::34                     33                       # What write queue length does an incoming req see
system.mem_ctrls.wrQLenPdf::35                      8                       # What write queue length does an incoming req see
system.mem_ctrls.wrQLenPdf::36                      0                       # What write queue length does an incoming req see
system.mem_ctrls.wrQLenPdf::37                      0                       # What write queue length does an incoming req see
system.mem_ctrls.wrQLenPdf::38                      0                       # What write queue length does an incoming req see
system.mem_ctrls.wrQLenPdf::39                      0                       # What write queue length does an incoming req see
system.mem_ctrls.wrQLenPdf::40                      0                       # What write queue length does an incoming req see
system.mem_ctrls.wrQLenPdf::41                      0                       # What write queue length does an incoming req see
system.mem_ctrls.wrQLenPdf::42                      0                       # What write queue length does an incoming req see
system.mem_ctrls.wrQLenPdf::43                      0                       # What write queue length does an incoming req see
system.mem_ctrls.wrQLenPdf::44                      0                       # What write queue length does an incoming req see
system.mem_ctrls.wrQLenPdf::45                      0                       # What write queue length does an incoming req see
system.mem_ctrls.wrQLenPdf::46                      0                       # What write queue length does an incoming req see
system.mem_ctrls.wrQLenPdf::47                      0                       # What write queue length does an incoming req see
system.mem_ctrls.wrQLenPdf::48                      0                       # What write queue length does an incoming req see
system.mem_ctrls.wrQLenPdf::49                      0                       # What write queue length does an incoming req see
system.mem_ctrls.wrQLenPdf::50                      0                       # What write queue length does an incoming req see
system.mem_ctrls.wrQLenPdf::51                      0                       # What write queue length does an incoming req see
system.mem_ctrls.wrQLenPdf::52                      0                       # What write queue length does an incoming req see
system.mem_ctrls.wrQLenPdf::53                      0                       # What write queue length does an incoming req see
system.mem_ctrls.wrQLenPdf::54                      0                       # What write queue length does an incoming req see
system.mem_ctrls.wrQLenPdf::55                      0                       # What write queue length does an incoming req see
system.mem_ctrls.wrQLenPdf::56                      0                       # What write queue length does an incoming req see
system.mem_ctrls.wrQLenPdf::57                      0                       # What write queue length does an incoming req see
system.mem_ctrls.wrQLenPdf::58                      0                       # What write queue length does an incoming req see
system.mem_ctrls.wrQLenPdf::59                      0                       # What write queue length does an incoming req see
system.mem_ctrls.wrQLenPdf::60                      0                       # What write queue length does an incoming req see
system.mem_ctrls.wrQLenPdf::61                      0                       # What write queue length does an incoming req see
system.mem_ctrls.wrQLenPdf::62                      0                       # What write queue length does an incoming req see
system.mem_ctrls.wrQLenPdf::63                      0                       # What write queue length does an incoming req see
system.mem_ctrls.bytesPerActivate::samples       924203                       # Bytes accessed per row activation
system.mem_ctrls.bytesPerActivate::mean     78.624874                       # Bytes accessed per row activation
system.mem_ctrls.bytesPerActivate::gmean    71.906179                       # Bytes accessed per row activation
system.mem_ctrls.bytesPerActivate::stdev    37.912790                       # Bytes accessed per row activation
system.mem_ctrls.bytesPerActivate::0-63         78251      8.47%      8.47% # Bytes accessed per row activation
system.mem_ctrls.bytesPerActivate::64-127       634740     68.68%     77.15% # Bytes accessed per row activation
system.mem_ctrls.bytesPerActivate::128-191       189137     20.46%     97.61% # Bytes accessed per row activation
system.mem_ctrls.bytesPerActivate::192-255        10214      1.11%     98.72% # Bytes accessed per row activation
system.mem_ctrls.bytesPerActivate::256-319        11192      1.21%     99.93% # Bytes accessed per row activation
system.mem_ctrls.bytesPerActivate::320-383          205      0.02%     99.95% # Bytes accessed per row activation
system.mem_ctrls.bytesPerActivate::384-447          210      0.02%     99.97% # Bytes accessed per row activation
system.mem_ctrls.bytesPerActivate::448-511           95      0.01%     99.98% # Bytes accessed per row activation
system.mem_ctrls.bytesPerActivate::512-575          159      0.02%    100.00% # Bytes accessed per row activation
system.mem_ctrls.bytesPerActivate::total       924203                       # Bytes accessed per row activation
system.mem_ctrls.rdPerTurnAround::samples        66134                       # Reads before turning the bus around for writes
system.mem_ctrls.rdPerTurnAround::mean      16.275274                       # Reads before turning the bus around for writes
system.mem_ctrls.rdPerTurnAround::gmean     16.181075                       # Reads before turning the bus around for writes
system.mem_ctrls.rdPerTurnAround::stdev      1.735464                       # Reads before turning the bus around for writes
system.mem_ctrls.rdPerTurnAround::8-11            110      0.17%      0.17% # Reads before turning the bus around for writes
system.mem_ctrls.rdPerTurnAround::12-15         15139     22.89%     23.06% # Reads before turning the bus around for writes
system.mem_ctrls.rdPerTurnAround::16-19         49669     75.10%     98.16% # Reads before turning the bus around for writes
system.mem_ctrls.rdPerTurnAround::20-23          1214      1.84%    100.00% # Reads before turning the bus around for writes
system.mem_ctrls.rdPerTurnAround::24-27             1      0.00%    100.00% # Reads before turning the bus around for writes
system.mem_ctrls.rdPerTurnAround::96-99             1      0.00%    100.00% # Reads before turning the bus around for writes
system.mem_ctrls.rdPerTurnAround::total         66134                       # Reads before turning the bus around for writes
system.mem_ctrls.wrPerTurnAround::samples        66134                       # Writes before turning the bus around for reads
system.mem_ctrls.wrPerTurnAround::mean      18.061179                       # Writes before turning the bus around for reads
system.mem_ctrls.wrPerTurnAround::gmean     17.986365                       # Writes before turning the bus around for reads
system.mem_ctrls.wrPerTurnAround::stdev      1.666602                       # Writes before turning the bus around for reads
system.mem_ctrls.wrPerTurnAround::16            18201     27.52%     27.52% # Writes before turning the bus around for reads
system.mem_ctrls.wrPerTurnAround::17              730      1.10%     28.63% # Writes before turning the bus around for reads
system.mem_ctrls.wrPerTurnAround::18            27087     40.96%     69.58% # Writes before turning the bus around for reads
system.mem_ctrls.wrPerTurnAround::19             8151     12.32%     81.91% # Writes before turning the bus around for reads
system.mem_ctrls.wrPerTurnAround::20             6065      9.17%     91.08% # Writes before turning the bus around for reads
system.mem_ctrls.wrPerTurnAround::21             3739      5.65%     96.73% # Writes before turning the bus around for reads
system.mem_ctrls.wrPerTurnAround::22             1288      1.95%     98.68% # Writes before turning the bus around for reads
system.mem_ctrls.wrPerTurnAround::23              757      1.14%     99.82% # Writes before turning the bus around for reads
system.mem_ctrls.wrPerTurnAround::24               73      0.11%     99.93% # Writes before turning the bus around for reads
system.mem_ctrls.wrPerTurnAround::25               42      0.06%    100.00% # Writes before turning the bus around for reads
system.mem_ctrls.wrPerTurnAround::29                1      0.00%    100.00% # Writes before turning the bus around for reads
system.mem_ctrls.wrPerTurnAround::total         66134                       # Writes before turning the bus around for reads
system.mem_ctrls.totQLat                  39648156128                       # Total ticks spent queuing
system.mem_ctrls.totMemAccLat             61175216128                       # Total ticks spent from burst creation until serviced by the DRAM
system.mem_ctrls.totBusLat                 5381765000                       # Total ticks spent in databus transfers
system.mem_ctrls.avgQLat                     36835.64                       # Average queueing delay per DRAM burst
system.mem_ctrls.avgBusLat                    5000.00                       # Average bus latency per DRAM burst
system.mem_ctrls.avgMemAccLat                56835.64                       # Average memory access latency per DRAM burst
system.mem_ctrls.avgRdBW                       153.96                       # Average DRAM read bandwidth in MiByte/s
system.mem_ctrls.avgWrBW                       170.85                       # Average achieved write bandwidth in MiByte/s
system.mem_ctrls.avgRdBWSys                   1438.76                       # Average system read bandwidth in MiByte/s
system.mem_ctrls.avgWrBWSys                   1438.75                       # Average system write bandwidth in MiByte/s
system.mem_ctrls.peakBW                       6400.00                       # Theoretical peak bandwidth in MiByte/s
system.mem_ctrls.busUtil                         5.08                       # Data bus utilization in percentage
system.mem_ctrls.busUtilRead                     2.41                       # Data bus utilization in percentage for reads
system.mem_ctrls.busUtilWrite                    2.67                       # Data bus utilization in percentage for writes
system.mem_ctrls.avgRdQLen                       1.99                       # Average read queue length when enqueuing
system.mem_ctrls.avgWrQLen                      25.14                       # Average write queue length when enqueuing
system.mem_ctrls.readRowHits                   576574                       # Number of row buffer hits during reads
system.mem_ctrls.writeRowHits                  770027                       # Number of row buffer hits during writes
system.mem_ctrls.readRowHitRate                 53.57                       # Row buffer hit rate for reads
system.mem_ctrls.writeRowHitRate                64.47                       # Row buffer hit rate for writes
system.mem_ctrls.avgGap                      22241.47                       # Average gap between requests
system.mem_ctrls.pageHitRate                    59.30                       # Row buffer hit rate, read and write combined
system.mem_ctrls_0.actEnergy               1649714850                       # Energy for activate commands per rank (pJ)
system.mem_ctrls_0.preEnergy             869490182.400005                       # Energy for precharge commands per rank (pJ)
system.mem_ctrls_0.readEnergy              1265791128                       # Energy for read commands per rank (pJ)
system.mem_ctrls_0.writeEnergy             1118012688                       # Energy for write commands per rank (pJ)
system.mem_ctrls_0.refreshEnergy           1393469220                       # Energy for refresh commands per rank (pJ)
system.mem_ctrls_0.actBackEnergy           2335749912                       # Energy for active background per rank (pJ)
system.mem_ctrls_0.preBackEnergy         82449904.799970                       # Energy for precharge background per rank (pJ)
system.mem_ctrls_0.actPowerDownEnergy    2567748639.149966                       # Energy for active power-down per rank (pJ)
system.mem_ctrls_0.prePowerDownEnergy        18876294                       # Energy for precharge power-down per rank (pJ)
system.mem_ctrls_0.selfRefreshEnergy                0                       # Energy for self refresh per rank (pJ)
system.mem_ctrls_0.totalEnergy           11301302818.349937                       # Total energy per rank (pJ)
system.mem_ctrls_0.averagePower             50.515565                       # Core power per rank (mW)
system.mem_ctrls_0.totalIdleTime         168581400222                       # Total Idle time Per DRAM Rank
system.mem_ctrls_0.memoryStateTime::IDLE    402518333                       # Time in different power states
system.mem_ctrls_0.memoryStateTime::REF    7491770000                       # Time in different power states
system.mem_ctrls_0.memoryStateTime::SREF            0                       # Time in different power states
system.mem_ctrls_0.memoryStateTime::PRE_PDN   5243463095                       # Time in different power states
system.mem_ctrls_0.memoryStateTime::ACT   47243462945                       # Time in different power states
system.mem_ctrls_0.memoryStateTime::ACT_PDN 163338007129                       # Time in different power states
system.pwrStateResidencyTicks::UNDEFINED 223719221502                       # Cumulative time (in ticks) in various power states
system.cpu.branchPred.lookups                21663987                       # Number of BP lookups
system.cpu.branchPred.condPredicted          12586492                       # Number of conditional branches predicted
system.cpu.branchPred.condIncorrect             50002                       # Number of conditional branches incorrect
system.cpu.branchPred.BTBLookups              8001068                       # Number of BTB lookups
system.cpu.branchPred.BTBHits                 8000357                       # Number of BTB hits
system.cpu.branchPred.BTBCorrect                    0                       # Number of correct BTB predictions (this stat may not work properly.
system.cpu.branchPred.BTBHitPct             99.991114                       # BTB Hit Percentage
system.cpu.branchPred.usedRAS                 3089519                       # Number of times the RAS was used to get a target.
system.cpu.branchPred.RASInCorrect                  1                       # Number of incorrect RAS predictions.
system.cpu.branchPred.indirectLookups             126                       # Number of indirect predictor lookups.
system.cpu.branchPred.indirectHits                 12                       # Number of indirect target hits.
system.cpu.branchPred.indirectMisses              114                       # Number of indirect misses.
system.cpu.branchPredindirectMispredicted           60                       # Number of mispredicted indirect branches.
system.cpu_voltage_domain.voltage                   1                       # Voltage in Volts
system.cpu_clk_domain.clock                       833                       # Clock period in ticks
system.cpu.dstage2_mmu.stage2_tlb.walker.pwrStateResidencyTicks::UNDEFINED 223719221502                       # Cumulative time (in ticks) in various power states
system.cpu.dstage2_mmu.stage2_tlb.walker.walks            0                       # Table walker walks requested
system.cpu.dstage2_mmu.stage2_tlb.walker.walkRequestOrigin_Requested::Data            0                       # Table walker requests started/completed, data/inst
system.cpu.dstage2_mmu.stage2_tlb.walker.walkRequestOrigin_Requested::Inst            0                       # Table walker requests started/completed, data/inst
system.cpu.dstage2_mmu.stage2_tlb.walker.walkRequestOrigin_Requested::total            0                       # Table walker requests started/completed, data/inst
system.cpu.dstage2_mmu.stage2_tlb.walker.walkRequestOrigin_Completed::Data            0                       # Table walker requests started/completed, data/inst
system.cpu.dstage2_mmu.stage2_tlb.walker.walkRequestOrigin_Completed::Inst            0                       # Table walker requests started/completed, data/inst
system.cpu.dstage2_mmu.stage2_tlb.walker.walkRequestOrigin_Completed::total            0                       # Table walker requests started/completed, data/inst
system.cpu.dstage2_mmu.stage2_tlb.walker.walkRequestOrigin::total            0                       # Table walker requests started/completed, data/inst
system.cpu.dstage2_mmu.stage2_tlb.inst_hits            0                       # ITB inst hits
system.cpu.dstage2_mmu.stage2_tlb.inst_misses            0                       # ITB inst misses
system.cpu.dstage2_mmu.stage2_tlb.read_hits            0                       # DTB read hits
system.cpu.dstage2_mmu.stage2_tlb.read_misses            0                       # DTB read misses
system.cpu.dstage2_mmu.stage2_tlb.write_hits            0                       # DTB write hits
system.cpu.dstage2_mmu.stage2_tlb.write_misses            0                       # DTB write misses
system.cpu.dstage2_mmu.stage2_tlb.flush_tlb            0                       # Number of times complete TLB was flushed
system.cpu.dstage2_mmu.stage2_tlb.flush_tlb_mva            0                       # Number of times TLB was flushed by MVA
system.cpu.dstage2_mmu.stage2_tlb.flush_tlb_mva_asid            0                       # Number of times TLB was flushed by MVA & ASID
system.cpu.dstage2_mmu.stage2_tlb.flush_tlb_asid            0                       # Number of times TLB was flushed by ASID
system.cpu.dstage2_mmu.stage2_tlb.flush_entries            0                       # Number of entries that have been flushed from TLB
system.cpu.dstage2_mmu.stage2_tlb.align_faults            0                       # Number of TLB faults due to alignment restrictions
system.cpu.dstage2_mmu.stage2_tlb.prefetch_faults            0                       # Number of TLB faults due to prefetch
system.cpu.dstage2_mmu.stage2_tlb.domain_faults            0                       # Number of TLB faults due to domain restrictions
system.cpu.dstage2_mmu.stage2_tlb.perms_faults            0                       # Number of TLB faults due to permissions restrictions
system.cpu.dstage2_mmu.stage2_tlb.read_accesses            0                       # DTB read accesses
system.cpu.dstage2_mmu.stage2_tlb.write_accesses            0                       # DTB write accesses
system.cpu.dstage2_mmu.stage2_tlb.inst_accesses            0                       # ITB inst accesses
system.cpu.dstage2_mmu.stage2_tlb.hits              0                       # DTB hits
system.cpu.dstage2_mmu.stage2_tlb.misses            0                       # DTB misses
system.cpu.dstage2_mmu.stage2_tlb.accesses            0                       # DTB accesses
system.cpu.dtb.walker.pwrStateResidencyTicks::UNDEFINED 223719221502                       # Cumulative time (in ticks) in various power states
system.cpu.dtb.walker.walks                         0                       # Table walker walks requested
system.cpu.dtb.walker.walkRequestOrigin_Requested::Data            0                       # Table walker requests started/completed, data/inst
system.cpu.dtb.walker.walkRequestOrigin_Requested::Inst            0                       # Table walker requests started/completed, data/inst
system.cpu.dtb.walker.walkRequestOrigin_Requested::total            0                       # Table walker requests started/completed, data/inst
system.cpu.dtb.walker.walkRequestOrigin_Completed::Data            0                       # Table walker requests started/completed, data/inst
system.cpu.dtb.walker.walkRequestOrigin_Completed::Inst            0                       # Table walker requests started/completed, data/inst
system.cpu.dtb.walker.walkRequestOrigin_Completed::total            0                       # Table walker requests started/completed, data/inst
system.cpu.dtb.walker.walkRequestOrigin::total            0                       # Table walker requests started/completed, data/inst
system.cpu.dtb.inst_hits                            0                       # ITB inst hits
system.cpu.dtb.inst_misses                          0                       # ITB inst misses
system.cpu.dtb.read_hits                            0                       # DTB read hits
system.cpu.dtb.read_misses                          0                       # DTB read misses
system.cpu.dtb.write_hits                           0                       # DTB write hits
system.cpu.dtb.write_misses                         0                       # DTB write misses
system.cpu.dtb.flush_tlb                            0                       # Number of times complete TLB was flushed
system.cpu.dtb.flush_tlb_mva                        0                       # Number of times TLB was flushed by MVA
system.cpu.dtb.flush_tlb_mva_asid                   0                       # Number of times TLB was flushed by MVA & ASID
system.cpu.dtb.flush_tlb_asid                       0                       # Number of times TLB was flushed by ASID
system.cpu.dtb.flush_entries                        0                       # Number of entries that have been flushed from TLB
system.cpu.dtb.align_faults                         0                       # Number of TLB faults due to alignment restrictions
system.cpu.dtb.prefetch_faults                      0                       # Number of TLB faults due to prefetch
system.cpu.dtb.domain_faults                        0                       # Number of TLB faults due to domain restrictions
system.cpu.dtb.perms_faults                         0                       # Number of TLB faults due to permissions restrictions
system.cpu.dtb.read_accesses                        0                       # DTB read accesses
system.cpu.dtb.write_accesses                       0                       # DTB write accesses
system.cpu.dtb.inst_accesses                        0                       # ITB inst accesses
system.cpu.dtb.hits                                 0                       # DTB hits
system.cpu.dtb.misses                               0                       # DTB misses
system.cpu.dtb.accesses                             0                       # DTB accesses
system.cpu.istage2_mmu.stage2_tlb.walker.pwrStateResidencyTicks::UNDEFINED 223719221502                       # Cumulative time (in ticks) in various power states
system.cpu.istage2_mmu.stage2_tlb.walker.walks            0                       # Table walker walks requested
system.cpu.istage2_mmu.stage2_tlb.walker.walkRequestOrigin_Requested::Data            0                       # Table walker requests started/completed, data/inst
system.cpu.istage2_mmu.stage2_tlb.walker.walkRequestOrigin_Requested::Inst            0                       # Table walker requests started/completed, data/inst
system.cpu.istage2_mmu.stage2_tlb.walker.walkRequestOrigin_Requested::total            0                       # Table walker requests started/completed, data/inst
system.cpu.istage2_mmu.stage2_tlb.walker.walkRequestOrigin_Completed::Data            0                       # Table walker requests started/completed, data/inst
system.cpu.istage2_mmu.stage2_tlb.walker.walkRequestOrigin_Completed::Inst            0                       # Table walker requests started/completed, data/inst
system.cpu.istage2_mmu.stage2_tlb.walker.walkRequestOrigin_Completed::total            0                       # Table walker requests started/completed, data/inst
system.cpu.istage2_mmu.stage2_tlb.walker.walkRequestOrigin::total            0                       # Table walker requests started/completed, data/inst
system.cpu.istage2_mmu.stage2_tlb.inst_hits            0                       # ITB inst hits
system.cpu.istage2_mmu.stage2_tlb.inst_misses            0                       # ITB inst misses
system.cpu.istage2_mmu.stage2_tlb.read_hits            0                       # DTB read hits
system.cpu.istage2_mmu.stage2_tlb.read_misses            0                       # DTB read misses
system.cpu.istage2_mmu.stage2_tlb.write_hits            0                       # DTB write hits
system.cpu.istage2_mmu.stage2_tlb.write_misses            0                       # DTB write misses
system.cpu.istage2_mmu.stage2_tlb.flush_tlb            0                       # Number of times complete TLB was flushed
system.cpu.istage2_mmu.stage2_tlb.flush_tlb_mva            0                       # Number of times TLB was flushed by MVA
system.cpu.istage2_mmu.stage2_tlb.flush_tlb_mva_asid            0                       # Number of times TLB was flushed by MVA & ASID
system.cpu.istage2_mmu.stage2_tlb.flush_tlb_asid            0                       # Number of times TLB was flushed by ASID
system.cpu.istage2_mmu.stage2_tlb.flush_entries            0                       # Number of entries that have been flushed from TLB
system.cpu.istage2_mmu.stage2_tlb.align_faults            0                       # Number of TLB faults due to alignment restrictions
system.cpu.istage2_mmu.stage2_tlb.prefetch_faults            0                       # Number of TLB faults due to prefetch
system.cpu.istage2_mmu.stage2_tlb.domain_faults            0                       # Number of TLB faults due to domain restrictions
system.cpu.istage2_mmu.stage2_tlb.perms_faults            0                       # Number of TLB faults due to permissions restrictions
system.cpu.istage2_mmu.stage2_tlb.read_accesses            0                       # DTB read accesses
system.cpu.istage2_mmu.stage2_tlb.write_accesses            0                       # DTB write accesses
system.cpu.istage2_mmu.stage2_tlb.inst_accesses            0                       # ITB inst accesses
system.cpu.istage2_mmu.stage2_tlb.hits              0                       # DTB hits
system.cpu.istage2_mmu.stage2_tlb.misses            0                       # DTB misses
system.cpu.istage2_mmu.stage2_tlb.accesses            0                       # DTB accesses
system.cpu.itb.walker.pwrStateResidencyTicks::UNDEFINED 223719221502                       # Cumulative time (in ticks) in various power states
system.cpu.itb.walker.walks                         0                       # Table walker walks requested
system.cpu.itb.walker.walkRequestOrigin_Requested::Data            0                       # Table walker requests started/completed, data/inst
system.cpu.itb.walker.walkRequestOrigin_Requested::Inst            0                       # Table walker requests started/completed, data/inst
system.cpu.itb.walker.walkRequestOrigin_Requested::total            0                       # Table walker requests started/completed, data/inst
system.cpu.itb.walker.walkRequestOrigin_Completed::Data            0                       # Table walker requests started/completed, data/inst
system.cpu.itb.walker.walkRequestOrigin_Completed::Inst            0                       # Table walker requests started/completed, data/inst
system.cpu.itb.walker.walkRequestOrigin_Completed::total            0                       # Table walker requests started/completed, data/inst
system.cpu.itb.walker.walkRequestOrigin::total            0                       # Table walker requests started/completed, data/inst
system.cpu.itb.inst_hits                            0                       # ITB inst hits
system.cpu.itb.inst_misses                          0                       # ITB inst misses
system.cpu.itb.read_hits                            0                       # DTB read hits
system.cpu.itb.read_misses                          0                       # DTB read misses
system.cpu.itb.write_hits                           0                       # DTB write hits
system.cpu.itb.write_misses                         0                       # DTB write misses
system.cpu.itb.flush_tlb                            0                       # Number of times complete TLB was flushed
system.cpu.itb.flush_tlb_mva                        0                       # Number of times TLB was flushed by MVA
system.cpu.itb.flush_tlb_mva_asid                   0                       # Number of times TLB was flushed by MVA & ASID
system.cpu.itb.flush_tlb_asid                       0                       # Number of times TLB was flushed by ASID
system.cpu.itb.flush_entries                        0                       # Number of entries that have been flushed from TLB
system.cpu.itb.align_faults                         0                       # Number of TLB faults due to alignment restrictions
system.cpu.itb.prefetch_faults                      0                       # Number of TLB faults due to prefetch
system.cpu.itb.domain_faults                        0                       # Number of TLB faults due to domain restrictions
system.cpu.itb.perms_faults                         0                       # Number of TLB faults due to permissions restrictions
system.cpu.itb.read_accesses                        0                       # DTB read accesses
system.cpu.itb.write_accesses                       0                       # DTB write accesses
system.cpu.itb.inst_accesses                        0                       # ITB inst accesses
system.cpu.itb.hits                                 0                       # DTB hits
system.cpu.itb.misses                               0                       # DTB misses
system.cpu.itb.accesses                             0                       # DTB accesses
system.cpu.workload.numSyscalls                    18                       # Number of system calls
system.cpu.pwrStateResidencyTicks::ON    223719221502                       # Cumulative time (in ticks) in various power states
system.cpu.numCycles                        268570495                       # number of cpu cycles simulated
system.cpu.numWorkItemsStarted                      0                       # number of work items this cpu started
system.cpu.numWorkItemsCompleted                    0                       # number of work items this cpu completed
system.cpu.fetch.icacheStallCycles          127576785                       # Number of cycles fetch is stalled on an Icache miss
system.cpu.fetch.Insts                      119783266                       # Number of instructions fetch has processed
system.cpu.fetch.Branches                    21663987                       # Number of branches that fetch encountered
system.cpu.fetch.predictedBranches           11089888                       # Number of branches that fetch has predicted taken
system.cpu.fetch.Cycles                     126789402                       # Number of cycles fetch has run and was not squashing or blocked
system.cpu.fetch.SquashCycles                  100752                       # Number of cycles fetch has spent squashing
system.cpu.fetch.MiscStallCycles                  273                       # Number of cycles fetch has spent waiting on interrupts, or bad addresses, or out of MSHRs
system.cpu.fetch.PendingTrapStallCycles            70                       # Number of stall cycles due to pending traps
system.cpu.fetch.IcacheWaitRetryStallCycles          441                       # Number of stall cycles due to full MSHR
system.cpu.fetch.CacheLines                  79578888                       # Number of cache lines fetched
system.cpu.fetch.IcacheSquashes                 33386                       # Number of outstanding Icache misses that were squashed
system.cpu.fetch.rateDist::samples          254417347                       # Number of instructions fetched each cycle (Total)
system.cpu.fetch.rateDist::mean              0.536278                       # Number of instructions fetched each cycle (Total)
system.cpu.fetch.rateDist::stdev             0.782889                       # Number of instructions fetched each cycle (Total)
system.cpu.fetch.rateDist::underflows               0      0.00%      0.00% # Number of instructions fetched each cycle (Total)
system.cpu.fetch.rateDist::0                164312306     64.58%     64.58% # Number of instructions fetched each cycle (Total)
system.cpu.fetch.rateDist::1                 43771562     17.20%     81.79% # Number of instructions fetched each cycle (Total)
system.cpu.fetch.rateDist::2                 46333479     18.21%    100.00% # Number of instructions fetched each cycle (Total)
system.cpu.fetch.rateDist::overflows                0      0.00%    100.00% # Number of instructions fetched each cycle (Total)
system.cpu.fetch.rateDist::min_value                0                       # Number of instructions fetched each cycle (Total)
system.cpu.fetch.rateDist::max_value                2                       # Number of instructions fetched each cycle (Total)
system.cpu.fetch.rateDist::total            254417347                       # Number of instructions fetched each cycle (Total)
system.cpu.fetch.branchRate                  0.080664                       # Number of branch fetches per cycle
system.cpu.fetch.rate                        0.446003                       # Number of inst fetches per cycle
system.cpu.decode.IdleCycles                 60369328                       # Number of cycles decode is idle
system.cpu.decode.BlockedCycles             120410191                       # Number of cycles decode is blocked
system.cpu.decode.RunCycles                  58981700                       # Number of cycles decode is running
system.cpu.decode.UnblockCycles              14606060                       # Number of cycles decode is unblocking
system.cpu.decode.SquashCycles                  50068                       # Number of cycles decode is squashing
system.cpu.decode.BranchResolved              7983531                       # Number of times decode resolved a branch
system.cpu.decode.BranchMispred                   312                       # Number of times decode detected a branch misprediction
system.cpu.decode.DecodedInsts              135347767                       # Number of instructions handled by decode
system.cpu.decode.SquashedInsts                195652                       # Number of squashed instructions handled by decode
system.cpu.rename.SquashCycles                  50068                       # Number of cycles rename is squashing
system.cpu.rename.IdleCycles                 70586836                       # Number of cycles rename is idle
system.cpu.rename.BlockCycles                 9638658                       # Number of cycles rename is blocking
system.cpu.rename.serializeStallCycles       59116501                       # count of cycles rename stalled for serializing inst
system.cpu.rename.RunCycles                  63368467                       # Number of cycles rename is running
system.cpu.rename.UnblockCycles              51656817                       # Number of cycles rename is unblocking
system.cpu.rename.RenamedInsts              135149184                       # Number of instructions processed by rename
system.cpu.rename.SquashedInsts                 97060                       # Number of squashed instructions processed by rename
system.cpu.rename.ROBFullEvents                 75982                       # Number of times rename has blocked due to ROB full
system.cpu.rename.IQFullEvents                      6                       # Number of times rename has blocked due to IQ full
system.cpu.rename.LQFullEvents                7087898                       # Number of times rename has blocked due to LQ full
system.cpu.rename.SQFullEvents               34477595                       # Number of times rename has blocked due to SQ full
system.cpu.rename.FullRegisterEvents                1                       # Number of times there has been no free registers
system.cpu.rename.RenamedOperands           150168702                       # Number of destination operands rename has renamed
system.cpu.rename.RenameLookups             607495677                       # Number of register rename lookups that rename has made
system.cpu.rename.int_rename_lookups        137195317                       # Number of integer rename lookups
system.cpu.rename.fp_rename_lookups                87                       # Number of floating rename lookups
system.cpu.rename.CommittedMaps             149965250                       # Number of HB maps that are committed
system.cpu.rename.UndoneMaps                   203442                       # Number of HB maps that are undone due to squashing
system.cpu.rename.serializingInsts            2992676                       # count of serializing insts renamed
system.cpu.rename.tempSerializingInsts        2992675                       # count of temporary serializing insts renamed
system.cpu.rename.skidInsts                  23701547                       # count of insts added to the skid buffer
system.cpu.memDep0.insertedLoads             25445332                       # Number of loads inserted to the mem dependence unit.
system.cpu.memDep0.insertedStores            21450857                       # Number of stores inserted to the mem dependence unit.
system.cpu.memDep0.conflictingLoads           2014277                       # Number of conflicting loads.
system.cpu.memDep0.conflictingStores               12                       # Number of conflicting stores.
system.cpu.iq.iqInstsAdded                  129066000                       # Number of instructions added to the IQ (excludes non-spec)
system.cpu.iq.iqNonSpecInstsAdded             5985333                       # Number of non-speculative instructions added to the IQ
system.cpu.iq.iqInstsIssued                 135050122                       # Number of instructions issued
system.cpu.iq.iqSquashedInstsIssued                83                       # Number of squashed instructions issued
system.cpu.iq.iqSquashedInstsExamined           55129                       # Number of squashed instructions iterated over during squash; mainly for profiling
system.cpu.iq.iqSquashedOperandsExamined         9445                       # Number of squashed operands that are examined and possibly removed from graph
system.cpu.iq.iqSquashedNonSpecRemoved              2                       # Number of squashed non-spec instructions that were removed
system.cpu.iq.issued_per_cycle::samples     254417347                       # Number of insts issued each cycle
system.cpu.iq.issued_per_cycle::mean         0.530821                       # Number of insts issued each cycle
system.cpu.iq.issued_per_cycle::stdev        0.759006                       # Number of insts issued each cycle
system.cpu.iq.issued_per_cycle::underflows            0      0.00%      0.00% # Number of insts issued each cycle
system.cpu.iq.issued_per_cycle::0           160969495     63.27%     63.27% # Number of insts issued each cycle
system.cpu.iq.issued_per_cycle::1            51845582     20.38%     83.65% # Number of insts issued each cycle
system.cpu.iq.issued_per_cycle::2            41602270     16.35%    100.00% # Number of insts issued each cycle
system.cpu.iq.issued_per_cycle::overflows            0      0.00%    100.00% # Number of insts issued each cycle
system.cpu.iq.issued_per_cycle::min_value            0                       # Number of insts issued each cycle
system.cpu.iq.issued_per_cycle::max_value            2                       # Number of insts issued each cycle
system.cpu.iq.issued_per_cycle::total       254417347                       # Number of insts issued each cycle
system.cpu.iq.fu_full::No_OpClass                   0      0.00%      0.00% # attempts to use FU when none available
system.cpu.iq.fu_full::IntAlu                       0      0.00%      0.00% # attempts to use FU when none available
system.cpu.iq.fu_full::IntMult                      0      0.00%      0.00% # attempts to use FU when none available
system.cpu.iq.fu_full::IntDiv                       0      0.00%      0.00% # attempts to use FU when none available
system.cpu.iq.fu_full::FloatAdd                     0      0.00%      0.00% # attempts to use FU when none available
system.cpu.iq.fu_full::FloatCmp                     0      0.00%      0.00% # attempts to use FU when none available
system.cpu.iq.fu_full::FloatCvt                     0      0.00%      0.00% # attempts to use FU when none available
system.cpu.iq.fu_full::FloatMult                    0      0.00%      0.00% # attempts to use FU when none available
system.cpu.iq.fu_full::FloatMultAcc                 0      0.00%      0.00% # attempts to use FU when none available
system.cpu.iq.fu_full::FloatDiv                     0      0.00%      0.00% # attempts to use FU when none available
system.cpu.iq.fu_full::FloatMisc                    0      0.00%      0.00% # attempts to use FU when none available
system.cpu.iq.fu_full::FloatSqrt                    0      0.00%      0.00% # attempts to use FU when none available
system.cpu.iq.fu_full::SimdAdd                      0      0.00%      0.00% # attempts to use FU when none available
system.cpu.iq.fu_full::SimdAddAcc                   0      0.00%      0.00% # attempts to use FU when none available
system.cpu.iq.fu_full::SimdAlu                      0      0.00%      0.00% # attempts to use FU when none available
system.cpu.iq.fu_full::SimdCmp                      0      0.00%      0.00% # attempts to use FU when none available
system.cpu.iq.fu_full::SimdCvt                      0      0.00%      0.00% # attempts to use FU when none available
system.cpu.iq.fu_full::SimdMisc                     0      0.00%      0.00% # attempts to use FU when none available
system.cpu.iq.fu_full::SimdMult                     0      0.00%      0.00% # attempts to use FU when none available
system.cpu.iq.fu_full::SimdMultAcc                  0      0.00%      0.00% # attempts to use FU when none available
system.cpu.iq.fu_full::SimdShift                    0      0.00%      0.00% # attempts to use FU when none available
system.cpu.iq.fu_full::SimdShiftAcc                 0      0.00%      0.00% # attempts to use FU when none available
system.cpu.iq.fu_full::SimdSqrt                     0      0.00%      0.00% # attempts to use FU when none available
system.cpu.iq.fu_full::SimdFloatAdd                 0      0.00%      0.00% # attempts to use FU when none available
system.cpu.iq.fu_full::SimdFloatAlu                 0      0.00%      0.00% # attempts to use FU when none available
system.cpu.iq.fu_full::SimdFloatCmp                 0      0.00%      0.00% # attempts to use FU when none available
system.cpu.iq.fu_full::SimdFloatCvt                 0      0.00%      0.00% # attempts to use FU when none available
system.cpu.iq.fu_full::SimdFloatDiv                 0      0.00%      0.00% # attempts to use FU when none available
system.cpu.iq.fu_full::SimdFloatMisc                0      0.00%      0.00% # attempts to use FU when none available
system.cpu.iq.fu_full::SimdFloatMult                0      0.00%      0.00% # attempts to use FU when none available
system.cpu.iq.fu_full::SimdFloatMultAcc             0      0.00%      0.00% # attempts to use FU when none available
system.cpu.iq.fu_full::SimdFloatSqrt                0      0.00%      0.00% # attempts to use FU when none available
system.cpu.iq.fu_full::MemRead                  82782      1.38%      1.38% # attempts to use FU when none available
system.cpu.iq.fu_full::MemWrite               5935969     98.62%    100.00% # attempts to use FU when none available
system.cpu.iq.fu_full::FloatMemRead                 0      0.00%    100.00% # attempts to use FU when none available
system.cpu.iq.fu_full::FloatMemWrite                4      0.00%    100.00% # attempts to use FU when none available
system.cpu.iq.fu_full::IprAccess                    0      0.00%    100.00% # attempts to use FU when none available
system.cpu.iq.fu_full::InstPrefetch                 0      0.00%    100.00% # attempts to use FU when none available
system.cpu.iq.FU_type_0::No_OpClass                 7      0.00%      0.00% # Type of FU issued
system.cpu.iq.FU_type_0::IntAlu              86657135     64.17%     64.17% # Type of FU issued
system.cpu.iq.FU_type_0::IntMult              1497033      1.11%     65.28% # Type of FU issued
system.cpu.iq.FU_type_0::IntDiv                     0      0.00%     65.28% # Type of FU issued
system.cpu.iq.FU_type_0::FloatAdd                   0      0.00%     65.28% # Type of FU issued
system.cpu.iq.FU_type_0::FloatCmp                   0      0.00%     65.28% # Type of FU issued
system.cpu.iq.FU_type_0::FloatCvt                   0      0.00%     65.28% # Type of FU issued
system.cpu.iq.FU_type_0::FloatMult                  0      0.00%     65.28% # Type of FU issued
system.cpu.iq.FU_type_0::FloatMultAcc               0      0.00%     65.28% # Type of FU issued
system.cpu.iq.FU_type_0::FloatDiv                   0      0.00%     65.28% # Type of FU issued
system.cpu.iq.FU_type_0::FloatMisc                  0      0.00%     65.28% # Type of FU issued
system.cpu.iq.FU_type_0::FloatSqrt                  0      0.00%     65.28% # Type of FU issued
system.cpu.iq.FU_type_0::SimdAdd                    2      0.00%     65.28% # Type of FU issued
system.cpu.iq.FU_type_0::SimdAddAcc                 0      0.00%     65.28% # Type of FU issued
system.cpu.iq.FU_type_0::SimdAlu                    0      0.00%     65.28% # Type of FU issued
system.cpu.iq.FU_type_0::SimdCmp                    0      0.00%     65.28% # Type of FU issued
system.cpu.iq.FU_type_0::SimdCvt                    0      0.00%     65.28% # Type of FU issued
system.cpu.iq.FU_type_0::SimdMisc                   0      0.00%     65.28% # Type of FU issued
system.cpu.iq.FU_type_0::SimdMult                   0      0.00%     65.28% # Type of FU issued
system.cpu.iq.FU_type_0::SimdMultAcc                0      0.00%     65.28% # Type of FU issued
system.cpu.iq.FU_type_0::SimdShift                  0      0.00%     65.28% # Type of FU issued
system.cpu.iq.FU_type_0::SimdShiftAcc               0      0.00%     65.28% # Type of FU issued
system.cpu.iq.FU_type_0::SimdSqrt                   0      0.00%     65.28% # Type of FU issued
system.cpu.iq.FU_type_0::SimdFloatAdd               0      0.00%     65.28% # Type of FU issued
system.cpu.iq.FU_type_0::SimdFloatAlu               0      0.00%     65.28% # Type of FU issued
system.cpu.iq.FU_type_0::SimdFloatCmp               0      0.00%     65.28% # Type of FU issued
system.cpu.iq.FU_type_0::SimdFloatCvt               0      0.00%     65.28% # Type of FU issued
system.cpu.iq.FU_type_0::SimdFloatDiv               0      0.00%     65.28% # Type of FU issued
system.cpu.iq.FU_type_0::SimdFloatMisc              1      0.00%     65.28% # Type of FU issued
system.cpu.iq.FU_type_0::SimdFloatMult              0      0.00%     65.28% # Type of FU issued
system.cpu.iq.FU_type_0::SimdFloatMultAcc            2      0.00%     65.28% # Type of FU issued
system.cpu.iq.FU_type_0::SimdFloatSqrt              0      0.00%     65.28% # Type of FU issued
system.cpu.iq.FU_type_0::MemRead             25445236     18.84%     84.12% # Type of FU issued
system.cpu.iq.FU_type_0::MemWrite            21450660     15.88%    100.00% # Type of FU issued
system.cpu.iq.FU_type_0::FloatMemRead              19      0.00%    100.00% # Type of FU issued
system.cpu.iq.FU_type_0::FloatMemWrite             27      0.00%    100.00% # Type of FU issued
system.cpu.iq.FU_type_0::IprAccess                  0      0.00%    100.00% # Type of FU issued
system.cpu.iq.FU_type_0::InstPrefetch               0      0.00%    100.00% # Type of FU issued
system.cpu.iq.FU_type_0::total              135050122                       # Type of FU issued
system.cpu.iq.rate                           0.502848                       # Inst issue rate
system.cpu.iq.fu_busy_cnt                     6018755                       # FU busy when requested
system.cpu.iq.fu_busy_rate                   0.044567                       # FU busy rate (busy events/executed inst)
system.cpu.iq.int_inst_queue_reads          530536321                       # Number of integer instruction queue reads
system.cpu.iq.int_inst_queue_writes         135106733                       # Number of integer instruction queue writes
system.cpu.iq.int_inst_queue_wakeup_accesses    135048142                       # Number of integer instruction queue wakeup accesses
system.cpu.iq.fp_inst_queue_reads                 106                       # Number of floating instruction queue reads
system.cpu.iq.fp_inst_queue_writes                 77                       # Number of floating instruction queue writes
system.cpu.iq.fp_inst_queue_wakeup_accesses           43                       # Number of floating instruction queue wakeup accesses
system.cpu.iq.vec_inst_queue_reads                  0                       # Number of vector instruction queue reads
system.cpu.iq.vec_inst_queue_writes                 0                       # Number of vector instruction queue writes
system.cpu.iq.vec_inst_queue_wakeup_accesses            0                       # Number of vector instruction queue wakeup accesses
system.cpu.iq.int_alu_accesses              141068815                       # Number of integer alu accesses
system.cpu.iq.fp_alu_accesses                      55                       # Number of floating point alu accesses
system.cpu.iq.vec_alu_accesses                      0                       # Number of vector alu accesses
system.cpu.iew.lsq.thread0.forwLoads           999198                       # Number of loads that had data forwarded from stores
system.cpu.iew.lsq.thread0.invAddrLoads             0                       # Number of loads ignored due to an invalid address
system.cpu.iew.lsq.thread0.squashedLoads         2822                       # Number of loads squashed
system.cpu.iew.lsq.thread0.ignoredResponses           86                       # Number of memory responses ignored because the instruction is squashed
system.cpu.iew.lsq.thread0.memOrderViolation          348                       # Number of memory ordering violations
system.cpu.iew.lsq.thread0.squashedStores          335                       # Number of stores squashed
system.cpu.iew.lsq.thread0.invAddrSwpfs             0                       # Number of software prefetches ignored due to an invalid address
system.cpu.iew.lsq.thread0.blockedLoads             0                       # Number of blocked loads due to partial load-store forwarding
system.cpu.iew.lsq.thread0.rescheduledLoads            0                       # Number of loads that were rescheduled
system.cpu.iew.lsq.thread0.cacheBlocked             0                       # Number of times an access to memory failed due to the cache being blocked
system.cpu.iew.iewIdleCycles                        0                       # Number of cycles IEW is idle
system.cpu.iew.iewSquashCycles                  50068                       # Number of cycles IEW is squashing
system.cpu.iew.iewBlockCycles                    2476                       # Number of cycles IEW is blocking
system.cpu.iew.iewUnblockCycles                  3437                       # Number of cycles IEW is unblocking
system.cpu.iew.iewDispatchedInsts           135051337                       # Number of instructions dispatched to IQ
system.cpu.iew.iewDispSquashedInsts                 0                       # Number of squashed instructions skipped by dispatch
system.cpu.iew.iewDispLoadInsts              25445332                       # Number of dispatched load instructions
system.cpu.iew.iewDispStoreInsts             21450857                       # Number of dispatched store instructions
system.cpu.iew.iewDispNonSpecInsts            2992675                       # Number of dispatched non-speculative instructions
system.cpu.iew.iewIQFullEvents                      3                       # Number of times the IQ has become full, causing a stall
system.cpu.iew.iewLSQFullEvents                  3222                       # Number of times the LSQ has become full, causing a stall
system.cpu.iew.memOrderViolationEvents            348                       # Number of memory order violations
system.cpu.iew.predictedTakenIncorrect          49057                       # Number of branches that were predicted taken incorrectly
system.cpu.iew.predictedNotTakenIncorrect          673                       # Number of branches that were predicted not taken incorrectly
system.cpu.iew.branchMispredicts                49730                       # Number of branch mispredicts detected at execute
system.cpu.iew.iewExecutedInsts             135048640                       # Number of executed instructions
system.cpu.iew.iewExecLoadInsts              25444880                       # Number of load instructions executed
system.cpu.iew.iewExecSquashedInsts              1480                       # Number of squashed instructions skipped in execute
system.cpu.iew.exec_swp                             0                       # number of swp insts executed
system.cpu.iew.exec_nop                             4                       # number of nop insts executed
system.cpu.iew.exec_refs                     46895499                       # number of memory reference insts executed
system.cpu.iew.exec_branches                 21403574                       # Number of branches executed
system.cpu.iew.exec_stores                   21450619                       # Number of stores executed
system.cpu.iew.exec_rate                     0.502842                       # Inst execution rate
system.cpu.iew.wb_sent                      135048443                       # cumulative count of insts sent to commit
system.cpu.iew.wb_count                     135048185                       # cumulative count of insts written-back
system.cpu.iew.wb_producers                  52311372                       # num instructions producing a value
system.cpu.iew.wb_consumers                  66822115                       # num instructions consuming a value
system.cpu.iew.wb_rate                       0.502841                       # insts written-back per cycle
system.cpu.iew.wb_fanout                     0.782845                       # average fanout of values written-back
system.cpu.commit.commitSquashedInsts           54545                       # The number of squashed insts skipped by commit
system.cpu.commit.commitNonSpecStalls         5985331                       # The number of times commit has been forced to stall to communicate backwards
system.cpu.commit.branchMispredicts             49701                       # The number of times a branch was mispredicted
system.cpu.commit.committed_per_cycle::samples    254365165                       # Number of insts commited each cycle
system.cpu.commit.committed_per_cycle::mean     0.530718                       # Number of insts commited each cycle
system.cpu.commit.committed_per_cycle::stdev     0.760664                       # Number of insts commited each cycle
system.cpu.commit.committed_per_cycle::underflows            0      0.00%      0.00% # Number of insts commited each cycle
system.cpu.commit.committed_per_cycle::0    161282404     63.41%     63.41% # Number of insts commited each cycle
system.cpu.commit.committed_per_cycle::1     51169328     20.12%     83.52% # Number of insts commited each cycle
system.cpu.commit.committed_per_cycle::2     41913433     16.48%    100.00% # Number of insts commited each cycle
system.cpu.commit.committed_per_cycle::overflows            0      0.00%    100.00% # Number of insts commited each cycle
system.cpu.commit.committed_per_cycle::min_value            0                       # Number of insts commited each cycle
system.cpu.commit.committed_per_cycle::max_value            2                       # Number of insts commited each cycle
system.cpu.commit.committed_per_cycle::total    254365165                       # Number of insts commited each cycle
system.cpu.commit.committedInsts            118535130                       # Number of instructions committed
system.cpu.commit.committedOps              134996194                       # Number of ops (including micro ops) committed
system.cpu.commit.swp_count                         0                       # Number of s/w prefetches committed
system.cpu.commit.refs                       46893030                       # Number of memory references committed
system.cpu.commit.loads                      25442510                       # Number of loads committed
system.cpu.commit.membars                     2992657                       # Number of memory barriers committed
system.cpu.commit.branches                   21403180                       # Number of branches committed
system.cpu.commit.vec_insts                         0                       # Number of committed Vector instructions.
system.cpu.commit.fp_insts                         39                       # Number of committed floating point instructions.
system.cpu.commit.int_insts                 113641538                       # Number of committed integer instructions.
system.cpu.commit.function_calls              2992824                       # Number of function calls committed.
system.cpu.commit.op_class_0::No_OpClass            0      0.00%      0.00% # Class of committed instruction
system.cpu.commit.op_class_0::IntAlu         86606834     64.16%     64.16% # Class of committed instruction
system.cpu.commit.op_class_0::IntMult         1496329      1.11%     65.26% # Class of committed instruction
system.cpu.commit.op_class_0::IntDiv                0      0.00%     65.26% # Class of committed instruction
system.cpu.commit.op_class_0::FloatAdd              0      0.00%     65.26% # Class of committed instruction
system.cpu.commit.op_class_0::FloatCmp              0      0.00%     65.26% # Class of committed instruction
system.cpu.commit.op_class_0::FloatCvt              0      0.00%     65.26% # Class of committed instruction
system.cpu.commit.op_class_0::FloatMult             0      0.00%     65.26% # Class of committed instruction
system.cpu.commit.op_class_0::FloatMultAcc            0      0.00%     65.26% # Class of committed instruction
system.cpu.commit.op_class_0::FloatDiv              0      0.00%     65.26% # Class of committed instruction
system.cpu.commit.op_class_0::FloatMisc             0      0.00%     65.26% # Class of committed instruction
system.cpu.commit.op_class_0::FloatSqrt             0      0.00%     65.26% # Class of committed instruction
system.cpu.commit.op_class_0::SimdAdd               0      0.00%     65.26% # Class of committed instruction
system.cpu.commit.op_class_0::SimdAddAcc            0      0.00%     65.26% # Class of committed instruction
system.cpu.commit.op_class_0::SimdAlu               0      0.00%     65.26% # Class of committed instruction
system.cpu.commit.op_class_0::SimdCmp               0      0.00%     65.26% # Class of committed instruction
system.cpu.commit.op_class_0::SimdCvt               0      0.00%     65.26% # Class of committed instruction
system.cpu.commit.op_class_0::SimdMisc              0      0.00%     65.26% # Class of committed instruction
system.cpu.commit.op_class_0::SimdMult              0      0.00%     65.26% # Class of committed instruction
system.cpu.commit.op_class_0::SimdMultAcc            0      0.00%     65.26% # Class of committed instruction
system.cpu.commit.op_class_0::SimdShift             0      0.00%     65.26% # Class of committed instruction
system.cpu.commit.op_class_0::SimdShiftAcc            0      0.00%     65.26% # Class of committed instruction
system.cpu.commit.op_class_0::SimdSqrt              0      0.00%     65.26% # Class of committed instruction
system.cpu.commit.op_class_0::SimdFloatAdd            0      0.00%     65.26% # Class of committed instruction
system.cpu.commit.op_class_0::SimdFloatAlu            0      0.00%     65.26% # Class of committed instruction
system.cpu.commit.op_class_0::SimdFloatCmp            0      0.00%     65.26% # Class of committed instruction
system.cpu.commit.op_class_0::SimdFloatCvt            0      0.00%     65.26% # Class of committed instruction
system.cpu.commit.op_class_0::SimdFloatDiv            0      0.00%     65.26% # Class of committed instruction
system.cpu.commit.op_class_0::SimdFloatMisc            1      0.00%     65.26% # Class of committed instruction
system.cpu.commit.op_class_0::SimdFloatMult            0      0.00%     65.26% # Class of committed instruction
system.cpu.commit.op_class_0::SimdFloatMultAcc            0      0.00%     65.26% # Class of committed instruction
system.cpu.commit.op_class_0::SimdFloatSqrt            0      0.00%     65.26% # Class of committed instruction
system.cpu.commit.op_class_0::MemRead        25442499     18.85%     84.11% # Class of committed instruction
system.cpu.commit.op_class_0::MemWrite       21450493     15.89%    100.00% # Class of committed instruction
system.cpu.commit.op_class_0::FloatMemRead           11      0.00%    100.00% # Class of committed instruction
system.cpu.commit.op_class_0::FloatMemWrite           27      0.00%    100.00% # Class of committed instruction
system.cpu.commit.op_class_0::IprAccess             0      0.00%    100.00% # Class of committed instruction
system.cpu.commit.op_class_0::InstPrefetch            0      0.00%    100.00% # Class of committed instruction
system.cpu.commit.op_class_0::total         134996194                       # Class of committed instruction
system.cpu.commit.bw_lim_events              41913433                       # number cycles where commit BW limit reached
system.cpu.rob.rob_reads                    347502224                       # The number of ROB reads
system.cpu.rob.rob_writes                   270153670                       # The number of ROB writes
system.cpu.timesIdled                         1509279                       # Number of times that the entire CPU went into an idle state and unscheduled itself
[...]
system.cpu.dcache.overall_avg_mshr_miss_latency::cpu.data 88990.951539                       # average overall mshr miss latency
system.cpu.dcache.overall_avg_mshr_miss_latency::total 88990.951539                       # average overall mshr miss latency
system.cpu.dtb_walker_cache.tags.pwrStateResidencyTicks::UNDEFINED 223719221502                       # Cumulative time (in ticks) in various power states
system.cpu.dtb_walker_cache.tags.replacements            0                       # number of replacements
system.cpu.dtb_walker_cache.tags.tagsinuse            0                       # Cycle average of tags in use
system.cpu.dtb_walker_cache.tags.total_refs            0                       # Total number of references to valid blocks.
system.cpu.dtb_walker_cache.tags.sampled_refs            0                       # Sample count of references to valid blocks.
system.cpu.dtb_walker_cache.tags.avg_refs          nan                       # Average number of references to valid blocks.
system.cpu.dtb_walker_cache.tags.warmup_cycle            0                       # Cycle when the warmup percentage was hit.
system.cpu.dtb_walker_cache.tags.tag_accesses            0                       # Number of tag accesses
system.cpu.dtb_walker_cache.tags.data_accesses            0                       # Number of data accesses
system.cpu.dtb_walker_cache.pwrStateResidencyTicks::UNDEFINED 223719221502                       # Cumulative time (in ticks) in various power states
system.cpu.dtb_walker_cache.blocked_cycles::no_mshrs            0                       # number of cycles access was blocked
system.cpu.dtb_walker_cache.blocked_cycles::no_targets            0                       # number of cycles access was blocked
system.cpu.dtb_walker_cache.blocked::no_mshrs            0                       # number of cycles access was blocked
system.cpu.dtb_walker_cache.blocked::no_targets            0                       # number of cycles access was blocked
system.cpu.dtb_walker_cache.avg_blocked_cycles::no_mshrs          nan                       # average number of cycles each access was blocked
system.cpu.dtb_walker_cache.avg_blocked_cycles::no_targets          nan                       # average number of cycles each access was blocked
system.cpu.icache.tags.pwrStateResidencyTicks::UNDEFINED 223719221502                       # Cumulative time (in ticks) in various power states
system.cpu.icache.tags.replacements           4489849                       # number of replacements
system.cpu.icache.tags.tagsinuse            15.999934                       # Cycle average of tags in use
system.cpu.icache.tags.total_refs            75088330                       # Total number of references to valid blocks.
system.cpu.icache.tags.sampled_refs           4489865                       # Sample count of references to valid blocks.
system.cpu.icache.tags.avg_refs             16.723962                       # Average number of references to valid blocks.
system.cpu.icache.tags.warmup_cycle             92000                       # Cycle when the warmup percentage was hit.
system.cpu.icache.tags.occ_blocks::cpu.inst    15.999934                       # Average occupied blocks per requestor
system.cpu.icache.tags.occ_percent::cpu.inst     0.999996                       # Average percentage of cache occupancy
system.cpu.icache.tags.occ_percent::total     0.999996                       # Average percentage of cache occupancy
system.cpu.icache.tags.occ_task_id_blocks::1024           16                       # Occupied blocks per task id
system.cpu.icache.tags.age_task_id_blocks_1024::0            2                       # Occupied blocks per task id
system.cpu.icache.tags.age_task_id_blocks_1024::4           14                       # Occupied blocks per task id
system.cpu.icache.tags.occ_task_id_percent::1024            1                       # Percentage of cache occupancy per task id
system.cpu.icache.tags.tag_accesses         163647635                       # Number of tag accesses
system.cpu.icache.tags.data_accesses        163647635                       # Number of data accesses
system.cpu.icache.pwrStateResidencyTicks::UNDEFINED 223719221502                       # Cumulative time (in ticks) in various power states
system.cpu.icache.ReadReq_hits::cpu.inst     75088330                       # number of ReadReq hits
system.cpu.icache.ReadReq_hits::total        75088330                       # number of ReadReq hits
system.cpu.icache.demand_hits::cpu.inst      75088330                       # number of demand (read+write) hits
system.cpu.icache.demand_hits::total         75088330                       # number of demand (read+write) hits
system.cpu.icache.overall_hits::cpu.inst     75088330                       # number of overall hits
system.cpu.icache.overall_hits::total        75088330                       # number of overall hits
system.cpu.icache.ReadReq_misses::cpu.inst      4490555                       # number of ReadReq misses
system.cpu.icache.ReadReq_misses::total       4490555                       # number of ReadReq misses
system.cpu.icache.demand_misses::cpu.inst      4490555                       # number of demand (read+write) misses
system.cpu.icache.demand_misses::total        4490555                       # number of demand (read+write) misses
system.cpu.icache.overall_misses::cpu.inst      4490555                       # number of overall misses
system.cpu.icache.overall_misses::total       4490555                       # number of overall misses
system.cpu.icache.ReadReq_miss_latency::cpu.inst 110959849876                       # number of ReadReq miss cycles
system.cpu.icache.ReadReq_miss_latency::total 110959849876                       # number of ReadReq miss cycles
system.cpu.icache.demand_miss_latency::cpu.inst 110959849876                       # number of demand (read+write) miss cycles
system.cpu.icache.demand_miss_latency::total 110959849876                       # number of demand (read+write) miss cycles
system.cpu.icache.overall_miss_latency::cpu.inst 110959849876                       # number of overall miss cycles
system.cpu.icache.overall_miss_latency::total 110959849876                       # number of overall miss cycles
system.cpu.icache.ReadReq_accesses::cpu.inst     79578885                       # number of ReadReq accesses(hits+misses)
system.cpu.icache.ReadReq_accesses::total     79578885                       # number of ReadReq accesses(hits+misses)
system.cpu.icache.demand_accesses::cpu.inst     79578885                       # number of demand (read+write) accesses
system.cpu.icache.demand_accesses::total     79578885                       # number of demand (read+write) accesses
system.cpu.icache.overall_accesses::cpu.inst     79578885                       # number of overall (read+write) accesses
system.cpu.icache.overall_accesses::total     79578885                       # number of overall (read+write) accesses
system.cpu.icache.ReadReq_miss_rate::cpu.inst     0.056429                       # miss rate for ReadReq accesses
system.cpu.icache.ReadReq_miss_rate::total     0.056429                       # miss rate for ReadReq accesses
system.cpu.icache.demand_miss_rate::cpu.inst     0.056429                       # miss rate for demand accesses
system.cpu.icache.demand_miss_rate::total     0.056429                       # miss rate for demand accesses
system.cpu.icache.overall_miss_rate::cpu.inst     0.056429                       # miss rate for overall accesses
system.cpu.icache.overall_miss_rate::total     0.056429                       # miss rate for overall accesses
system.cpu.icache.ReadReq_avg_miss_latency::cpu.inst 24709.607137                       # average ReadReq miss latency
system.cpu.icache.ReadReq_avg_miss_latency::total 24709.607137                       # average ReadReq miss latency
system.cpu.icache.demand_avg_miss_latency::cpu.inst 24709.607137                       # average overall miss latency
system.cpu.icache.demand_avg_miss_latency::total 24709.607137                       # average overall miss latency
system.cpu.icache.overall_avg_miss_latency::cpu.inst 24709.607137                       # average overall miss latency
system.cpu.icache.overall_avg_miss_latency::total 24709.607137                       # average overall miss latency
system.cpu.icache.blocked_cycles::no_mshrs        14432                       # number of cycles access was blocked
system.cpu.icache.blocked_cycles::no_targets            0                       # number of cycles access was blocked
system.cpu.icache.blocked::no_mshrs               206                       # number of cycles access was blocked
system.cpu.icache.blocked::no_targets               0                       # number of cycles access was blocked
system.cpu.icache.avg_blocked_cycles::no_mshrs    70.058252                       # average number of cycles each access was blocked
system.cpu.icache.avg_blocked_cycles::no_targets          nan                       # average number of cycles each access was blocked
system.cpu.icache.writebacks::writebacks      4489849                       # number of writebacks
system.cpu.icache.writebacks::total           4489849                       # number of writebacks
system.cpu.icache.ReadReq_mshr_hits::cpu.inst          689                       # number of ReadReq MSHR hits
system.cpu.icache.ReadReq_mshr_hits::total          689                       # number of ReadReq MSHR hits
system.cpu.icache.demand_mshr_hits::cpu.inst          689                       # number of demand (read+write) MSHR hits
system.cpu.icache.demand_mshr_hits::total          689                       # number of demand (read+write) MSHR hits
system.cpu.icache.overall_mshr_hits::cpu.inst          689                       # number of overall MSHR hits
system.cpu.icache.overall_mshr_hits::total          689                       # number of overall MSHR hits
system.cpu.icache.ReadReq_mshr_misses::cpu.inst      4489866                       # number of ReadReq MSHR misses
system.cpu.icache.ReadReq_mshr_misses::total      4489866                       # number of ReadReq MSHR misses
system.cpu.icache.demand_mshr_misses::cpu.inst      4489866                       # number of demand (read+write) MSHR misses
system.cpu.icache.demand_mshr_misses::total      4489866                       # number of demand (read+write) MSHR misses
system.cpu.icache.overall_mshr_misses::cpu.inst      4489866                       # number of overall MSHR misses
system.cpu.icache.overall_mshr_misses::total      4489866                       # number of overall MSHR misses
system.cpu.icache.ReadReq_mshr_miss_latency::cpu.inst 105103018615                       # number of ReadReq MSHR miss cycles
system.cpu.icache.ReadReq_mshr_miss_latency::total 105103018615                       # number of ReadReq MSHR miss cycles
system.cpu.icache.demand_mshr_miss_latency::cpu.inst 105103018615                       # number of demand (read+write) MSHR miss cycles
system.cpu.icache.demand_mshr_miss_latency::total 105103018615                       # number of demand (read+write) MSHR miss cycles
system.cpu.icache.overall_mshr_miss_latency::cpu.inst 105103018615                       # number of overall MSHR miss cycles
system.cpu.icache.overall_mshr_miss_latency::total 105103018615                       # number of overall MSHR miss cycles
system.cpu.icache.ReadReq_mshr_miss_rate::cpu.inst     0.056420                       # mshr miss rate for ReadReq accesses
system.cpu.icache.ReadReq_mshr_miss_rate::total     0.056420                       # mshr miss rate for ReadReq accesses
system.cpu.icache.demand_mshr_miss_rate::cpu.inst     0.056420                       # mshr miss rate for demand accesses
system.cpu.icache.demand_mshr_miss_rate::total     0.056420                       # mshr miss rate for demand accesses
system.cpu.icache.overall_mshr_miss_rate::cpu.inst     0.056420                       # mshr miss rate for overall accesses
system.cpu.icache.overall_mshr_miss_rate::total     0.056420                       # mshr miss rate for overall accesses
system.cpu.icache.ReadReq_avg_mshr_miss_latency::cpu.inst 23408.943299                       # average ReadReq mshr miss latency
system.cpu.icache.ReadReq_avg_mshr_miss_latency::total 23408.943299                       # average ReadReq mshr miss latency
system.cpu.icache.demand_avg_mshr_miss_latency::cpu.inst 23408.943299                       # average overall mshr miss latency
system.cpu.icache.demand_avg_mshr_miss_latency::total 23408.943299                       # average overall mshr miss latency
system.cpu.icache.overall_avg_mshr_miss_latency::cpu.inst 23408.943299                       # average overall mshr miss latency
system.cpu.icache.overall_avg_mshr_miss_latency::total 23408.943299                       # average overall mshr miss latency
system.cpu.itb_walker_cache.tags.pwrStateResidencyTicks::UNDEFINED 223719221502                       # Cumulative time (in ticks) in various power states
system.cpu.itb_walker_cache.tags.replacements            0                       # number of replacements
system.cpu.itb_walker_cache.tags.tagsinuse            0                       # Cycle average of tags in use
system.cpu.itb_walker_cache.tags.total_refs            0                       # Total number of references to valid blocks.
system.cpu.itb_walker_cache.tags.sampled_refs            0                       # Sample count of references to valid blocks.
system.cpu.itb_walker_cache.tags.avg_refs          nan                       # Average number of references to valid blocks.
system.cpu.itb_walker_cache.tags.warmup_cycle            0                       # Cycle when the warmup percentage was hit.
system.cpu.itb_walker_cache.tags.tag_accesses            0                       # Number of tag accesses
system.cpu.itb_walker_cache.tags.data_accesses            0                       # Number of data accesses
system.cpu.itb_walker_cache.pwrStateResidencyTicks::UNDEFINED 223719221502                       # Cumulative time (in ticks) in various power states
system.cpu.itb_walker_cache.blocked_cycles::no_mshrs            0                       # number of cycles access was blocked
system.cpu.itb_walker_cache.blocked_cycles::no_targets            0                       # number of cycles access was blocked
system.cpu.itb_walker_cache.blocked::no_mshrs            0                       # number of cycles access was blocked
system.cpu.itb_walker_cache.blocked::no_targets            0                       # number of cycles access was blocked
system.cpu.itb_walker_cache.avg_blocked_cycles::no_mshrs          nan                       # average number of cycles each access was blocked
system.cpu.itb_walker_cache.avg_blocked_cycles::no_targets          nan                       # average number of cycles each access was blocked
system.membus.snoop_filter.tot_requests      10058675                       # Total number of requests made to the snoop filter.
system.membus.snoop_filter.hit_single_requests      5029321                       # Number of requests hitting in the snoop filter with a single holder of the requested data.
system.membus.snoop_filter.hit_multi_requests           22                       # Number of requests hitting in the snoop filter with multiple (>1) holders of the requested data.
system.membus.snoop_filter.tot_snoops               0                       # Total number of snoops made to the snoop filter.
system.membus.snoop_filter.hit_single_snoops            0                       # Number of snoops hitting in the snoop filter with a single holder of the requested data.
system.membus.snoop_filter.hit_multi_snoops            0                       # Number of snoops hitting in the snoop filter with multiple (>1) holders of the requested data.
system.membus.pwrStateResidencyTicks::UNDEFINED 223719221502                       # Cumulative time (in ticks) in various power states
system.membus.trans_dist::ReadResp            4515346                       # Transaction distribution
system.membus.trans_dist::WritebackDirty       539269                       # Transaction distribution
system.membus.trans_dist::WritebackClean      4490052                       # Transaction distribution
system.membus.trans_dist::ReadExReq            514007                       # Transaction distribution
system.membus.trans_dist::ReadExResp           514007                       # Transaction distribution
system.membus.trans_dist::ReadCleanReq        4489866                       # Transaction distribution
system.membus.trans_dist::ReadSharedReq         25481                       # Transaction distribution
system.membus.pkt_count_system.cpu.icache.mem_side::system.mem_ctrls.port     13469580                       # Packet count per connected master and slave (bytes)
system.membus.pkt_count_system.cpu.dcache.mem_side::system.mem_ctrls.port      1618448                       # Packet count per connected master and slave (bytes)
system.membus.pkt_count::total               15088028                       # Packet count per connected master and slave (bytes)
system.membus.pkt_size_system.cpu.icache.mem_side::system.mem_ctrls.port    574701696                       # Cumulative packet size per connected master and slave (bytes)
system.membus.pkt_size_system.cpu.dcache.mem_side::system.mem_ctrls.port     69053440                       # Cumulative packet size per connected master and slave (bytes)
system.membus.pkt_size::total               643755136                       # Cumulative packet size per connected master and slave (bytes)
system.membus.snoops                                0                       # Total snoops (count)
system.membus.snoopTraffic                          0                       # Total snoop traffic (bytes)
system.membus.snoop_fanout::samples           5029354                       # Request fanout histogram
system.membus.snoop_fanout::mean             0.000004                       # Request fanout histogram
system.membus.snoop_fanout::stdev            0.002091                       # Request fanout histogram
system.membus.snoop_fanout::underflows              0      0.00%      0.00% # Request fanout histogram
system.membus.snoop_fanout::0                 5029332    100.00%    100.00% # Request fanout histogram
system.membus.snoop_fanout::1                      22      0.00%    100.00% # Request fanout histogram
system.membus.snoop_fanout::2                       0      0.00%    100.00% # Request fanout histogram
system.membus.snoop_fanout::3                       0      0.00%    100.00% # Request fanout histogram
system.membus.snoop_fanout::4                       0      0.00%    100.00% # Request fanout histogram
system.membus.snoop_fanout::overflows               0      0.00%    100.00% # Request fanout histogram
system.membus.snoop_fanout::min_value               0                       # Request fanout histogram
system.membus.snoop_fanout::max_value               1                       # Request fanout histogram
system.membus.snoop_fanout::total             5029354                       # Request fanout histogram
system.membus.reqLayer0.occupancy         34328019067                       # Layer occupancy (ticks)
system.membus.reqLayer0.utilization              15.3                       # Layer utilization (%)
system.membus.respLayer1.occupancy        22465438803                       # Layer occupancy (ticks)
system.membus.respLayer1.utilization             10.0                       # Layer utilization (%)
system.membus.respLayer2.occupancy         2938395748                       # Layer occupancy (ticks)
system.membus.respLayer2.utilization              1.3                       # Layer utilization (%)

---------- End Simulation Statistics   ----------
