
---------- Begin Simulation Statistics ----------
sim_seconds                                  0.000134                       # Number of seconds simulated
sim_ticks                                   133713160                       # Number of ticks simulated
final_tick                                  133713160                       # Number of ticks from beginning of simulation (restored from checkpoints and never reset)
sim_freq                                 1000000000000                       # Frequency of simulated ticks
host_inst_rate                                 186450                       # Simulator instruction rate (inst/s)
host_op_rate                                   217022                       # Simulator op (including micro ops) rate (op/s)
host_tick_rate                              354005203                       # Simulator tick rate (ticks/s)
host_mem_usage                                1194120                       # Number of bytes of host memory used
host_seconds                                     0.38                       # Real time elapsed on the host
sim_insts                                       70422                       # Number of instructions simulated
sim_ops                                         81971                       # Number of ops (including micro ops) simulated
system.voltage_domain.voltage                       1                       # Voltage in Volts
system.clk_domain.clock                          1000                       # Clock period in ticks
system.mem_ctrls.pwrStateResidencyTicks::UNDEFINED    133713160                       # Cumulative time (in ticks) in various power states
system.mem_ctrls.bytes_read::cpu.inst           33856                       # Number of bytes read from this memory
system.mem_ctrls.bytes_read::cpu.data           20160                       # Number of bytes read from this memory
system.mem_ctrls.bytes_read::total              54016                       # Number of bytes read from this memory
system.mem_ctrls.bytes_inst_read::cpu.inst        33856                       # Number of instructions bytes read from this memory
system.mem_ctrls.bytes_inst_read::total         33856                       # Number of instructions bytes read from this memory
system.mem_ctrls.num_reads::cpu.inst              529                       # Number of read requests responded to by this memory
system.mem_ctrls.num_reads::cpu.data              315                       # Number of read requests responded to by this memory
system.mem_ctrls.num_reads::total                 844                       # Number of read requests responded to by this memory
system.mem_ctrls.bw_read::cpu.inst          253198713                       # Total read bandwidth from this memory (bytes/s)
system.mem_ctrls.bw_read::cpu.data          150770500                       # Total read bandwidth from this memory (bytes/s)
system.mem_ctrls.bw_read::total             403969213                       # Total read bandwidth from this memory (bytes/s)
system.mem_ctrls.bw_inst_read::cpu.inst     253198713                       # Instruction read bandwidth from this memory (bytes/s)
system.mem_ctrls.bw_inst_read::total        253198713                       # Instruction read bandwidth from this memory (bytes/s)
system.mem_ctrls.bw_total::cpu.inst         253198713                       # Total bandwidth to/from this memory (bytes/s)
system.mem_ctrls.bw_total::cpu.data         150770500                       # Total bandwidth to/from this memory (bytes/s)
system.mem_ctrls.bw_total::total            403969213                       # Total bandwidth to/from this memory (bytes/s)
system.mem_ctrls.readReqs                         844                       # Number of read requests accepted
system.mem_ctrls.writeReqs                        104                       # Number of write requests accepted
system.mem_ctrls.readBursts                      1688                       # Number of DRAM read bursts, including those serviced by the write queue
system.mem_ctrls.writeBursts                      208                       # Number of DRAM write bursts, including those merged in the write queue
system.mem_ctrls.bytesReadDRAM                  53312                       # Total number of bytes read from DRAM
system.mem_ctrls.bytesReadWrQ                     704                       # Total number of bytes read from write queue
system.mem_ctrls.bytesWritten                    5376                       # Total number of bytes written to DRAM
system.mem_ctrls.bytesReadSys                   54016                       # Total read bytes from the system interface side
system.mem_ctrls.bytesWrittenSys                 6656                       # Total written bytes from the system interface side
system.mem_ctrls.servicedByWrQ                     22                       # Number of DRAM read bursts serviced by the write queue
system.mem_ctrls.mergedWrBursts                    14                       # Number of DRAM write bursts merged with an existing one
system.mem_ctrls.neitherReadNorWriteReqs            0                       # Number of requests that are neither read nor write
system.mem_ctrls.perBankRdBursts::0               272                       # Per bank write bursts
system.mem_ctrls.perBankRdBursts::1               294                       # Per bank write bursts
system.mem_ctrls.perBankRdBursts::2               208                       # Per bank write bursts
system.mem_ctrls.perBankRdBursts::3               358                       # Per bank write bursts
system.mem_ctrls.perBankRdBursts::4               218                       # Per bank write bursts
system.mem_ctrls.perBankRdBursts::5               144                       # Per bank write bursts
system.mem_ctrls.perBankRdBursts::6                60                       # Per bank write bursts
system.mem_ctrls.perBankRdBursts::7               112                       # Per bank write bursts
system.mem_ctrls.perBankWrBursts::0                14                       # Per bank write bursts
system.mem_ctrls.perBankWrBursts::1                14                       # Per bank write bursts
system.mem_ctrls.perBankWrBursts::2                 6                       # Per bank write bursts
system.mem_ctrls.perBankWrBursts::3                56                       # Per bank write bursts
system.mem_ctrls.perBankWrBursts::4                52                       # Per bank write bursts
system.mem_ctrls.perBankWrBursts::5                12                       # Per bank write bursts
system.mem_ctrls.perBankWrBursts::6                 2                       # Per bank write bursts
system.mem_ctrls.perBankWrBursts::7                12                       # Per bank write bursts
system.mem_ctrls.numRdRetry                         0                       # Number of times read queue was full causing retry
system.mem_ctrls.numWrRetry                         0                       # Number of times write queue was full causing retry
system.mem_ctrls.totGap                     133603204                       # Total gap between requests
system.mem_ctrls.readPktSize::0                     0                       # Read request sizes (log2)
system.mem_ctrls.readPktSize::1                     0                       # Read request sizes (log2)
system.mem_ctrls.readPktSize::2                     0                       # Read request sizes (log2)
system.mem_ctrls.readPktSize::3                     0                       # Read request sizes (log2)
system.mem_ctrls.readPktSize::4                     0                       # Read request sizes (log2)
system.mem_ctrls.readPktSize::5                  1688                       # Read request sizes (log2)
system.mem_ctrls.writePktSize::0                    0                       # Write request sizes (log2)
system.mem_ctrls.writePktSize::1                    0                       # Write request sizes (log2)
system.mem_ctrls.writePktSize::2                    0                       # Write request sizes (log2)
system.mem_ctrls.writePktSize::3                    0                       # Write request sizes (log2)
system.mem_ctrls.writePktSize::4                    0                       # Write request sizes (log2)
system.mem_ctrls.writePktSize::5                  208                       # Write request sizes (log2)
system.mem_ctrls.rdQLenPdf::0                     573                       # What read queue length does an incoming req see
system.mem_ctrls.rdQLenPdf::1                     582                       # What read queue length does an incoming req see
system.mem_ctrls.rdQLenPdf::2                     214                       # What read queue length does an incoming req see
system.mem_ctrls.rdQLenPdf::3                     208                       # What read queue length does an incoming req see
system.mem_ctrls.rdQLenPdf::4                      39                       # What read queue length does an incoming req see
system.mem_ctrls.rdQLenPdf::5                      36                       # What read queue length does an incoming req see
system.mem_ctrls.rdQLenPdf::6                       6                       # What read queue length does an incoming req see
system.mem_ctrls.rdQLenPdf::7                       6                       # What read queue length does an incoming req see
system.mem_ctrls.rdQLenPdf::8                       1                       # What read queue length does an incoming req see
system.mem_ctrls.rdQLenPdf::9                       1                       # What read queue length does an incoming req see
system.mem_ctrls.rdQLenPdf::10                      0                       # What read queue length does an incoming req see
system.mem_ctrls.rdQLenPdf::11                      0                       # What read queue length does an incoming req see
system.mem_ctrls.rdQLenPdf::12                      0                       # What read queue length does an incoming req see
system.mem_ctrls.rdQLenPdf::13                      0                       # What read queue length does an incoming req see
system.mem_ctrls.rdQLenPdf::14                      0                       # What read queue length does an incoming req see
system.mem_ctrls.rdQLenPdf::15                      0                       # What read queue length does an incoming req see
system.mem_ctrls.rdQLenPdf::16                      0                       # What read queue length does an incoming req see
system.mem_ctrls.rdQLenPdf::17                      0                       # What read queue length does an incoming req see
system.mem_ctrls.rdQLenPdf::18                      0                       # What read queue length does an incoming req see
system.mem_ctrls.rdQLenPdf::19                      0                       # What read queue length does an incoming req see
system.mem_ctrls.rdQLenPdf::20                      0                       # What read queue length does an incoming req see
system.mem_ctrls.rdQLenPdf::21                      0                       # What read queue length does an incoming req see
system.mem_ctrls.rdQLenPdf::22                      0                       # What read queue length does an incoming req see
system.mem_ctrls.rdQLenPdf::23                      0                       # What read queue length does an incoming req see
system.mem_ctrls.rdQLenPdf::24                      0                       # What read queue length does an incoming req see
system.mem_ctrls.rdQLenPdf::25                      0                       # What read queue length does an incoming req see
system.mem_ctrls.rdQLenPdf::26                      0                       # What read queue length does an incoming req see
system.mem_ctrls.rdQLenPdf::27                      0                       # What read queue length does an incoming req see
system.mem_ctrls.rdQLenPdf::28                      0                       # What read queue length does an incoming req see
system.mem_ctrls.rdQLenPdf::29                      0                       # What read queue length does an incoming req see
system.mem_ctrls.rdQLenPdf::30                      0                       # What read queue length does an incoming req see
system.mem_ctrls.rdQLenPdf::31                      0                       # What read queue length does an incoming req see
system.mem_ctrls.wrQLenPdf::0                       1                       # What write queue length does an incoming req see
system.mem_ctrls.wrQLenPdf::1                       1                       # What write queue length does an incoming req see
system.mem_ctrls.wrQLenPdf::2                       1                       # What write queue length does an incoming req see
system.mem_ctrls.wrQLenPdf::3                       1                       # What write queue length does an incoming req see
system.mem_ctrls.wrQLenPdf::4                       1                       # What write queue length does an incoming req see
system.mem_ctrls.wrQLenPdf::5                       1                       # What write queue length does an incoming req see
system.mem_ctrls.wrQLenPdf::6                       1                       # What write queue length does an incoming req see
system.mem_ctrls.wrQLenPdf::7                       1                       # What write queue length does an incoming req see
system.mem_ctrls.wrQLenPdf::8                       1                       # What write queue length does an incoming req see
system.mem_ctrls.wrQLenPdf::9                       1                       # What write queue length does an incoming req see
system.mem_ctrls.wrQLenPdf::10                      1                       # What write queue length does an incoming req see
system.mem_ctrls.wrQLenPdf::11                      1                       # What write queue length does an incoming req see
system.mem_ctrls.wrQLenPdf::12                      1                       # What write queue length does an incoming req see
system.mem_ctrls.wrQLenPdf::13                      1                       # What write queue length does an incoming req see
system.mem_ctrls.wrQLenPdf::14                      1                       # What write queue length does an incoming req see
system.mem_ctrls.wrQLenPdf::15                      4                       # What write queue length does an incoming req see
system.mem_ctrls.wrQLenPdf::16                      4                       # What write queue length does an incoming req see
system.mem_ctrls.wrQLenPdf::17                      7                       # What write queue length does an incoming req see
system.mem_ctrls.wrQLenPdf::18                     12                       # What write queue length does an incoming req see
system.mem_ctrls.wrQLenPdf::19                     12                       # What write queue length does an incoming req see
system.mem_ctrls.wrQLenPdf::20                     11                       # What write queue length does an incoming req see
system.mem_ctrls.wrQLenPdf::21                     11                       # What write queue length does an incoming req see
system.mem_ctrls.wrQLenPdf::22                     11                       # What write queue length does an incoming req see
system.mem_ctrls.wrQLenPdf::23                     11                       # What write queue length does an incoming req see
system.mem_ctrls.wrQLenPdf::24                     11                       # What write queue length does an incoming req see
system.mem_ctrls.wrQLenPdf::25                     11                       # What write queue length does an incoming req see
system.mem_ctrls.wrQLenPdf::26                     10                       # What write queue length does an incoming req see
system.mem_ctrls.wrQLenPdf::27                     10                       # What write queue length does an incoming req see
system.mem_ctrls.wrQLenPdf::28                     10                       # What write queue length does an incoming req see
system.mem_ctrls.wrQLenPdf::29                     10                       # What write queue length does an incoming req see
system.mem_ctrls.wrQLenPdf::30                     10                       # What write queue length does an incoming req see
system.mem_ctrls.wrQLenPdf::31                     10                       # What write queue length does an incoming req see
system.mem_ctrls.wrQLenPdf::32                     10                       # What write queue length does an incoming req see
system.mem_ctrls.wrQLenPdf::33                      4                       # What write queue length does an incoming req see
system.mem_ctrls.wrQLenPdf::34                      0                       # What write queue length does an incoming req see
system.mem_ctrls.wrQLenPdf::35                      0                       # What write queue length does an incoming req see
system.mem_ctrls.wrQLenPdf::36                      0                       # What write queue length does an incoming req see
system.mem_ctrls.wrQLenPdf::37                      0                       # What write queue length does an incoming req see
system.mem_ctrls.wrQLenPdf::38                      0                       # What write queue length does an incoming req see
system.mem_ctrls.wrQLenPdf::39                      0                       # What write queue length does an incoming req see
system.mem_ctrls.wrQLenPdf::40                      0                       # What write queue length does an incoming req see
system.mem_ctrls.wrQLenPdf::41                      0                       # What write queue length does an incoming req see
system.mem_ctrls.wrQLenPdf::42                      0                       # What write queue length does an incoming req see
system.mem_ctrls.wrQLenPdf::43                      0                       # What write queue length does an incoming req see
system.mem_ctrls.wrQLenPdf::44                      0                       # What write queue length does an incoming req see
system.mem_ctrls.wrQLenPdf::45                      0                       # What write queue length does an incoming req see
system.mem_ctrls.wrQLenPdf::46                      0                       # What write queue length does an incoming req see
system.mem_ctrls.wrQLenPdf::47                      0                       # What write queue length does an incoming req see
system.mem_ctrls.wrQLenPdf::48                      0                       # What write queue length does an incoming req see
system.mem_ctrls.wrQLenPdf::49                      0                       # What write queue length does an incoming req see
system.mem_ctrls.wrQLenPdf::50                      0                       # What write queue length does an incoming req see
system.mem_ctrls.wrQLenPdf::51                      0                       # What write queue length does an incoming req see
system.mem_ctrls.wrQLenPdf::52                      0                       # What write queue length does an incoming req see
system.mem_ctrls.wrQLenPdf::53                      0                       # What write queue length does an incoming req see
system.mem_ctrls.wrQLenPdf::54                      0                       # What write queue length does an incoming req see
system.mem_ctrls.wrQLenPdf::55                      0                       # What write queue length does an incoming req see
system.mem_ctrls.wrQLenPdf::56                      0                       # What write queue length does an incoming req see
system.mem_ctrls.wrQLenPdf::57                      0                       # What write queue length does an incoming req see
system.mem_ctrls.wrQLenPdf::58                      0                       # What write queue length does an incoming req see
system.mem_ctrls.wrQLenPdf::59                      0                       # What write queue length does an incoming req see
system.mem_ctrls.wrQLenPdf::60                      0                       # What write queue length does an incoming req see
system.mem_ctrls.wrQLenPdf::61                      0                       # What write queue length does an incoming req see
system.mem_ctrls.wrQLenPdf::62                      0                       # What write queue length does an incoming req see
system.mem_ctrls.wrQLenPdf::63                      0                       # What write queue length does an incoming req see
system.mem_ctrls.bytesPerActivate::samples          346                       # Bytes accessed per row activation
system.mem_ctrls.bytesPerActivate::mean    168.693642                       # Bytes accessed per row activation
system.mem_ctrls.bytesPerActivate::gmean   127.218705                       # Bytes accessed per row activation
system.mem_ctrls.bytesPerActivate::stdev   138.045923                       # Bytes accessed per row activation
system.mem_ctrls.bytesPerActivate::0-63             1      0.29%      0.29% # Bytes accessed per row activation
system.mem_ctrls.bytesPerActivate::64-127          153     44.22%     44.51% # Bytes accessed per row activation
system.mem_ctrls.bytesPerActivate::128-191           73     21.10%     65.61% # Bytes accessed per row activation
system.mem_ctrls.bytesPerActivate::192-255           33      9.54%     75.14% # Bytes accessed per row activation
system.mem_ctrls.bytesPerActivate::256-319           26      7.51%     82.66% # Bytes accessed per row activation
system.mem_ctrls.bytesPerActivate::320-383           14      4.05%     86.71% # Bytes accessed per row activation
system.mem_ctrls.bytesPerActivate::384-447           10      2.89%     89.60% # Bytes accessed per row activation
system.mem_ctrls.bytesPerActivate::448-511           12      3.47%     93.06% # Bytes accessed per row activation
system.mem_ctrls.bytesPerActivate::512-575           24      6.94%    100.00% # Bytes accessed per row activation
system.mem_ctrls.bytesPerActivate::total          346                       # Bytes accessed per row activation
system.mem_ctrls.rdPerTurnAround::samples           10                       # Reads before turning the bus around for writes
system.mem_ctrls.rdPerTurnAround::mean     164.800000                       # Reads before turning the bus around for writes
system.mem_ctrls.rdPerTurnAround::gmean     97.465456                       # Reads before turning the bus around for writes
system.mem_ctrls.rdPerTurnAround::stdev    221.853205                       # Reads before turning the bus around for writes
system.mem_ctrls.rdPerTurnAround::0-31              1     10.00%     10.00% # Reads before turning the bus around for writes
system.mem_ctrls.rdPerTurnAround::32-63             3     30.00%     40.00% # Reads before turning the bus around for writes
system.mem_ctrls.rdPerTurnAround::64-95             1     10.00%     50.00% # Reads before turning the bus around for writes
system.mem_ctrls.rdPerTurnAround::96-127            1     10.00%     60.00% # Reads before turning the bus around for writes
system.mem_ctrls.rdPerTurnAround::128-159            1     10.00%     70.00% # Reads before turning the bus around for writes
system.mem_ctrls.rdPerTurnAround::160-191            1     10.00%     80.00% # Reads before turning the bus around for writes
system.mem_ctrls.rdPerTurnAround::224-255            1     10.00%     90.00% # Reads before turning the bus around for writes
system.mem_ctrls.rdPerTurnAround::736-767            1     10.00%    100.00% # Reads before turning the bus around for writes
system.mem_ctrls.rdPerTurnAround::total            10                       # Reads before turning the bus around for writes
system.mem_ctrls.wrPerTurnAround::samples           10                       # Writes before turning the bus around for reads
system.mem_ctrls.wrPerTurnAround::mean      16.800000                       # Writes before turning the bus around for reads
system.mem_ctrls.wrPerTurnAround::gmean     16.766667                       # Writes before turning the bus around for reads
system.mem_ctrls.wrPerTurnAround::stdev      1.135292                       # Writes before turning the bus around for reads
system.mem_ctrls.wrPerTurnAround::16                6     60.00%     60.00% # Writes before turning the bus around for reads
system.mem_ctrls.wrPerTurnAround::17                1     10.00%     70.00% # Writes before turning the bus around for reads
system.mem_ctrls.wrPerTurnAround::18                2     20.00%     90.00% # Writes before turning the bus around for reads
system.mem_ctrls.wrPerTurnAround::19                1     10.00%    100.00% # Writes before turning the bus around for reads
system.mem_ctrls.wrPerTurnAround::total            10                       # Writes before turning the bus around for reads
system.mem_ctrls.totQLat                     42513898                       # Total ticks spent queuing
system.mem_ctrls.totMemAccLat                75833898                       # Total ticks spent from burst creation until serviced by the DRAM
system.mem_ctrls.totBusLat                    8330000                       # Total ticks spent in databus transfers
system.mem_ctrls.avgQLat                     25518.55                       # Average queueing delay per DRAM burst
system.mem_ctrls.avgBusLat                    5000.00                       # Average bus latency per DRAM burst
system.mem_ctrls.avgMemAccLat                45518.55                       # Average memory access latency per DRAM burst
system.mem_ctrls.avgRdBW                       398.70                       # Average DRAM read bandwidth in MiByte/s
system.mem_ctrls.avgWrBW                        40.21                       # Average achieved write bandwidth in MiByte/s
system.mem_ctrls.avgRdBWSys                    403.97                       # Average system read bandwidth in MiByte/s
system.mem_ctrls.avgWrBWSys                     49.78                       # Average system write bandwidth in MiByte/s
system.mem_ctrls.peakBW                       6400.00                       # Theoretical peak bandwidth in MiByte/s
system.mem_ctrls.busUtil                         6.86                       # Data bus utilization in percentage
system.mem_ctrls.busUtilRead                     6.23                       # Data bus utilization in percentage for reads
system.mem_ctrls.busUtilWrite                    0.63                       # Data bus utilization in percentage for writes
system.mem_ctrls.avgRdQLen                       2.50                       # Average read queue length when enqueuing
system.mem_ctrls.avgWrQLen                      23.66                       # Average write queue length when enqueuing
system.mem_ctrls.readRowHits                     1357                       # Number of row buffer hits during reads
system.mem_ctrls.writeRowHits                     128                       # Number of row buffer hits during writes
system.mem_ctrls.readRowHitRate                 81.45                       # Row buffer hit rate for reads
system.mem_ctrls.writeRowHitRate                65.98                       # Row buffer hit rate for writes
system.mem_ctrls.avgGap                     140931.65                       # Average gap between requests
system.mem_ctrls.pageHitRate                    79.84                       # Row buffer hit rate, read and write combined
system.mem_ctrls_0.actEnergy                   622965                       # Energy for activate commands per rank (pJ)
system.mem_ctrls_0.preEnergy             325516.800000                       # Energy for precharge commands per rank (pJ)
system.mem_ctrls_0.readEnergy                 1959216                       # Energy for read commands per rank (pJ)
system.mem_ctrls_0.writeEnergy                 157248                       # Energy for write commands per rank (pJ)
system.mem_ctrls_0.refreshEnergy               822120                       # Energy for refresh commands per rank (pJ)
system.mem_ctrls_0.actBackEnergy              1529913                       # Energy for active background per rank (pJ)
system.mem_ctrls_0.preBackEnergy         68625.600000                       # Energy for precharge background per rank (pJ)
system.mem_ctrls_0.actPowerDownEnergy    1278704.100000                       # Energy for active power-down per rank (pJ)
system.mem_ctrls_0.prePowerDownEnergy           43956                       # Energy for precharge power-down per rank (pJ)
system.mem_ctrls_0.selfRefreshEnergy     34802.025000                       # Energy for self refresh per rank (pJ)
system.mem_ctrls_0.totalEnergy           6843066.525000                       # Total energy per rank (pJ)
system.mem_ctrls_0.averagePower             51.177210                       # Core power per rank (mW)
system.mem_ctrls_0.totalIdleTime             97107795                       # Total Idle time Per DRAM Rank
system.mem_ctrls_0.memoryStateTime::IDLE       358333                       # Time in different power states
system.mem_ctrls_0.memoryStateTime::REF       4427500                       # Time in different power states
system.mem_ctrls_0.memoryStateTime::SREF      3600848                       # Time in different power states
system.mem_ctrls_0.memoryStateTime::PRE_PDN     12208087                       # Time in different power states
system.mem_ctrls_0.memoryStateTime::ACT      31778909                       # Time in different power states
system.mem_ctrls_0.memoryStateTime::ACT_PDN     81339483                       # Time in different power states
system.pwrStateResidencyTicks::UNDEFINED    133713160                       # Cumulative time (in ticks) in various power states
system.cpu.branchPred.lookups                   18320                       # Number of BP lookups
system.cpu.branchPred.condPredicted              9179                       # Number of conditional branches predicted
system.cpu.branchPred.condIncorrect              1952                       # Number of conditional branches incorrect
system.cpu.branchPred.BTBLookups                 8195                       # Number of BTB lookups
system.cpu.branchPred.BTBHits                    5862                       # Number of BTB hits
system.cpu.branchPred.BTBCorrect                    0                       # Number of correct BTB predictions (this stat may not work properly.
system.cpu.branchPred.BTBHitPct             71.531422                       # BTB Hit Percentage
system.cpu.branchPred.usedRAS                    3283                       # Number of times the RAS was used to get a target.
system.cpu.branchPred.RASInCorrect                785                       # Number of incorrect RAS predictions.
system.cpu.branchPred.indirectLookups             823                       # Number of indirect predictor lookups.
system.cpu.branchPred.indirectHits                444                       # Number of indirect target hits.
system.cpu.branchPred.indirectMisses              379                       # Number of indirect misses.
system.cpu.branchPredindirectMispredicted          106                       # Number of mispredicted indirect branches.
system.cpu_voltage_domain.voltage                   1                       # Voltage in Volts
system.cpu_clk_domain.clock                       833                       # Clock period in ticks
system.cpu.dstage2_mmu.stage2_tlb.walker.pwrStateResidencyTicks::UNDEFINED    133713160                       # Cumulative time (in ticks) in various power states
system.cpu.dstage2_mmu.stage2_tlb.walker.walks            0                       # Table walker walks requested
system.cpu.dstage2_mmu.stage2_tlb.walker.walkRequestOrigin_Requested::Data            0                       # Table walker requests started/completed, data/inst
system.cpu.dstage2_mmu.stage2_tlb.walker.walkRequestOrigin_Requested::Inst            0                       # Table walker requests started/completed, data/inst
system.cpu.dstage2_mmu.stage2_tlb.walker.walkRequestOrigin_Requested::total            0                       # Table walker requests started/completed, data/inst
system.cpu.dstage2_mmu.stage2_tlb.walker.walkRequestOrigin_Completed::Data            0                       # Table walker requests started/completed, data/inst
system.cpu.dstage2_mmu.stage2_tlb.walker.walkRequestOrigin_Completed::Inst            0                       # Table walker requests started/completed, data/inst
system.cpu.dstage2_mmu.stage2_tlb.walker.walkRequestOrigin_Completed::total            0                       # Table walker requests started/completed, data/inst
system.cpu.dstage2_mmu.stage2_tlb.walker.walkRequestOrigin::total            0                       # Table walker requests started/completed, data/inst
system.cpu.dstage2_mmu.stage2_tlb.inst_hits            0                       # ITB inst hits
system.cpu.dstage2_mmu.stage2_tlb.inst_misses            0                       # ITB inst misses
system.cpu.dstage2_mmu.stage2_tlb.read_hits            0                       # DTB read hits
system.cpu.dstage2_mmu.stage2_tlb.read_misses            0                       # DTB read misses
system.cpu.dstage2_mmu.stage2_tlb.write_hits            0                       # DTB write hits
system.cpu.dstage2_mmu.stage2_tlb.write_misses            0                       # DTB write misses
system.cpu.dstage2_mmu.stage2_tlb.flush_tlb            0                       # Number of times complete TLB was flushed
system.cpu.dstage2_mmu.stage2_tlb.flush_tlb_mva            0                       # Number of times TLB was flushed by MVA
system.cpu.dstage2_mmu.stage2_tlb.flush_tlb_mva_asid            0                       # Number of times TLB was flushed by MVA & ASID
system.cpu.dstage2_mmu.stage2_tlb.flush_tlb_asid            0                       # Number of times TLB was flushed by ASID
system.cpu.dstage2_mmu.stage2_tlb.flush_entries            0                       # Number of entries that have been flushed from TLB
system.cpu.dstage2_mmu.stage2_tlb.align_faults            0                       # Number of TLB faults due to alignment restrictions
system.cpu.dstage2_mmu.stage2_tlb.prefetch_faults            0                       # Number of TLB faults due to prefetch
system.cpu.dstage2_mmu.stage2_tlb.domain_faults            0                       # Number of TLB faults due to domain restrictions
system.cpu.dstage2_mmu.stage2_tlb.perms_faults            0                       # Number of TLB faults due to permissions restrictions
system.cpu.dstage2_mmu.stage2_tlb.read_accesses            0                       # DTB read accesses
system.cpu.dstage2_mmu.stage2_tlb.write_accesses            0                       # DTB write accesses
system.cpu.dstage2_mmu.stage2_tlb.inst_accesses            0                       # ITB inst accesses
system.cpu.dstage2_mmu.stage2_tlb.hits              0                       # DTB hits
system.cpu.dstage2_mmu.stage2_tlb.misses            0                       # DTB misses
system.cpu.dstage2_mmu.stage2_tlb.accesses            0                       # DTB accesses
system.cpu.dtb.walker.pwrStateResidencyTicks::UNDEFINED    133713160                       # Cumulative time (in ticks) in various power states
system.cpu.dtb.walker.walks                         0                       # Table walker walks requested
system.cpu.dtb.walker.walkRequestOrigin_Requested::Data            0                       # Table walker requests started/completed, data/inst
system.cpu.dtb.walker.walkRequestOrigin_Requested::Inst            0                       # Table walker requests started/completed, data/inst
system.cpu.dtb.walker.walkRequestOrigin_Requested::total            0                       # Table walker requests started/completed, data/inst
system.cpu.dtb.walker.walkRequestOrigin_Completed::Data            0                       # Table walker requests started/completed, data/inst
system.cpu.dtb.walker.walkRequestOrigin_Completed::Inst            0                       # Table walker requests started/completed, data/inst
system.cpu.dtb.walker.walkRequestOrigin_Completed::total            0                       # Table walker requests started/completed, data/inst
system.cpu.dtb.walker.walkRequestOrigin::total            0                       # Table walker requests started/completed, data/inst
system.cpu.dtb.inst_hits                            0                       # ITB inst hits
system.cpu.dtb.inst_misses                          0                       # ITB inst misses
system.cpu.dtb.read_hits                            0                       # DTB read hits
system.cpu.dtb.read_misses                          0                       # DTB read misses
system.cpu.dtb.write_hits                           0                       # DTB write hits
system.cpu.dtb.write_misses                         0                       # DTB write misses
system.cpu.dtb.flush_tlb                            0                       # Number of times complete TLB was flushed
system.cpu.dtb.flush_tlb_mva                        0                       # Number of times TLB was flushed by MVA
system.cpu.dtb.flush_tlb_mva_asid                   0                       # Number of times TLB was flushed by MVA & ASID
system.cpu.dtb.flush_tlb_asid                       0                       # Number of times TLB was flushed by ASID
system.cpu.dtb.flush_entries                        0                       # Number of entries that have been flushed from TLB
system.cpu.dtb.align_faults                         0                       # Number of TLB faults due to alignment restrictions
system.cpu.dtb.prefetch_faults                      0                       # Number of TLB faults due to prefetch
system.cpu.dtb.domain_faults                        0                       # Number of TLB faults due to domain restrictions
system.cpu.dtb.perms_faults                         0                       # Number of TLB faults due to permissions restrictions
system.cpu.dtb.read_accesses                        0                       # DTB read accesses
system.cpu.dtb.write_accesses                       0                       # DTB write accesses
system.cpu.dtb.inst_accesses                        0                       # ITB inst accesses
system.cpu.dtb.hits                                 0                       # DTB hits
system.cpu.dtb.misses                               0                       # DTB misses
system.cpu.dtb.accesses                             0                       # DTB accesses
system.cpu.istage2_mmu.stage2_tlb.walker.pwrStateResidencyTicks::UNDEFINED    133713160                       # Cumulative time (in ticks) in various power states
system.cpu.istage2_mmu.stage2_tlb.walker.walks            0                       # Table walker walks requested
system.cpu.istage2_mmu.stage2_tlb.walker.walkRequestOrigin_Requested::Data            0                       # Table walker requests started/completed, data/inst
system.cpu.istage2_mmu.stage2_tlb.walker.walkRequestOrigin_Requested::Inst            0                       # Table walker requests started/completed, data/inst
system.cpu.istage2_mmu.stage2_tlb.walker.walkRequestOrigin_Requested::total            0                       # Table walker requests started/completed, data/inst
system.cpu.istage2_mmu.stage2_tlb.walker.walkRequestOrigin_Completed::Data            0                       # Table walker requests started/completed, data/inst
system.cpu.istage2_mmu.stage2_tlb.walker.walkRequestOrigin_Completed::Inst            0                       # Table walker requests started/completed, data/inst
system.cpu.istage2_mmu.stage2_tlb.walker.walkRequestOrigin_Completed::total            0                       # Table walker requests started/completed, data/inst
system.cpu.istage2_mmu.stage2_tlb.walker.walkRequestOrigin::total            0                       # Table walker requests started/completed, data/inst
system.cpu.istage2_mmu.stage2_tlb.inst_hits            0                       # ITB inst hits
system.cpu.istage2_mmu.stage2_tlb.inst_misses            0                       # ITB inst misses
system.cpu.istage2_mmu.stage2_tlb.read_hits            0                       # DTB read hits
system.cpu.istage2_mmu.stage2_tlb.read_misses            0                       # DTB read misses
system.cpu.istage2_mmu.stage2_tlb.write_hits            0                       # DTB write hits
system.cpu.istage2_mmu.stage2_tlb.write_misses            0                       # DTB write misses
system.cpu.istage2_mmu.stage2_tlb.flush_tlb            0                       # Number of times complete TLB was flushed
system.cpu.istage2_mmu.stage2_tlb.flush_tlb_mva            0                       # Number of times TLB was flushed by MVA
system.cpu.istage2_mmu.stage2_tlb.flush_tlb_mva_asid            0                       # Number of times TLB was flushed by MVA & ASID
system.cpu.istage2_mmu.stage2_tlb.flush_tlb_asid            0                       # Number of times TLB was flushed by ASID
system.cpu.istage2_mmu.stage2_tlb.flush_entries            0                       # Number of entries that have been flushed from TLB
system.cpu.istage2_mmu.stage2_tlb.align_faults            0                       # Number of TLB faults due to alignment restrictions
system.cpu.istage2_mmu.stage2_tlb.prefetch_faults            0                       # Number of TLB faults due to prefetch
system.cpu.istage2_mmu.stage2_tlb.domain_faults            0                       # Number of TLB faults due to domain restrictions
system.cpu.istage2_mmu.stage2_tlb.perms_faults            0                       # Number of TLB faults due to permissions restrictions
system.cpu.istage2_mmu.stage2_tlb.read_accesses            0                       # DTB read accesses
system.cpu.istage2_mmu.stage2_tlb.write_accesses            0                       # DTB write accesses
system.cpu.istage2_mmu.stage2_tlb.inst_accesses            0                       # ITB inst accesses
system.cpu.istage2_mmu.stage2_tlb.hits              0                       # DTB hits
system.cpu.istage2_mmu.stage2_tlb.misses            0                       # DTB misses
system.cpu.istage2_mmu.stage2_tlb.accesses            0                       # DTB accesses
system.cpu.itb.walker.pwrStateResidencyTicks::UNDEFINED    133713160                       # Cumulative time (in ticks) in various power states
system.cpu.itb.walker.walks                         0                       # Table walker walks requested
system.cpu.itb.walker.walkRequestOrigin_Requested::Data            0                       # Table walker requests started/completed, data/inst
system.cpu.itb.walker.walkRequestOrigin_Requested::Inst            0                       # Table walker requests started/completed, data/inst
system.cpu.itb.walker.walkRequestOrigin_Requested::total            0                       # Table walker requests started/completed, data/inst
system.cpu.itb.walker.walkRequestOrigin_Completed::Data            0                       # Table walker requests started/completed, data/inst
system.cpu.itb.walker.walkRequestOrigin_Completed::Inst            0                       # Table walker requests started/completed, data/inst
system.cpu.itb.walker.walkRequestOrigin_Completed::total            0                       # Table walker requests started/completed, data/inst
system.cpu.itb.walker.walkRequestOrigin::total            0                       # Table walker requests started/completed, data/inst
system.cpu.itb.inst_hits                            0                       # ITB inst hits
system.cpu.itb.inst_misses                          0                       # ITB inst misses
system.cpu.itb.read_hits                            0                       # DTB read hits
system.cpu.itb.read_misses                          0                       # DTB read misses
system.cpu.itb.write_hits                           0                       # DTB write hits
system.cpu.itb.write_misses                         0                       # DTB write misses
system.cpu.itb.flush_tlb                            0                       # Number of times complete TLB was flushed
system.cpu.itb.flush_tlb_mva                        0                       # Number of times TLB was flushed by MVA
system.cpu.itb.flush_tlb_mva_asid                   0                       # Number of times TLB was flushed by MVA & ASID
system.cpu.itb.flush_tlb_asid                       0                       # Number of times TLB was flushed by ASID
system.cpu.itb.flush_entries                        0                       # Number of entries that have been flushed from TLB
system.cpu.itb.align_faults                         0                       # Number of TLB faults due to alignment restrictions
system.cpu.itb.prefetch_faults                      0                       # Number of TLB faults due to prefetch
system.cpu.itb.domain_faults                        0                       # Number of TLB faults due to domain restrictions
system.cpu.itb.perms_faults                         0                       # Number of TLB faults due to permissions restrictions
system.cpu.itb.read_accesses                        0                       # DTB read accesses
system.cpu.itb.write_accesses                       0                       # DTB write accesses
system.cpu.itb.inst_accesses                        0                       # ITB inst accesses
system.cpu.itb.hits                                 0                       # DTB hits
system.cpu.itb.misses                               0                       # DTB misses
system.cpu.itb.accesses                             0                       # DTB accesses
system.cpu.workload.numSyscalls                    11                       # Number of system calls
system.cpu.pwrStateResidencyTicks::ON       133713160                       # Cumulative time (in ticks) in various power states
system.cpu.numCycles                           160521                       # number of cpu cycles simulated
system.cpu.numWorkItemsStarted                      0                       # number of work items this cpu started
system.cpu.numWorkItemsCompleted                    0                       # number of work items this cpu completed
system.cpu.fetch.icacheStallCycles              13781                       # Number of cycles fetch is stalled on an Icache miss
system.cpu.fetch.Insts                          96962                       # Number of instructions fetch has processed
system.cpu.fetch.Branches                       18320                       # Number of branches that fetch encountered
system.cpu.fetch.predictedBranches               9589                       # Number of branches that fetch has predicted taken
system.cpu.fetch.Cycles                        118372                       # Number of cycles fetch has run and was not squashing or blocked
system.cpu.fetch.SquashCycles                    3996                       # Number of cycles fetch has spent squashing
system.cpu.fetch.MiscStallCycles                   39                       # Number of cycles fetch has spent waiting on interrupts, or bad addresses, or out of MSHRs
system.cpu.fetch.PendingTrapStallCycles           325                       # Number of stall cycles due to pending traps
system.cpu.fetch.IcacheWaitRetryStallCycles          355                       # Number of stall cycles due to full MSHR
system.cpu.fetch.CacheLines                     98692                       # Number of cache lines fetched
system.cpu.fetch.IcacheSquashes                   290                       # Number of outstanding Icache misses that were squashed
system.cpu.fetch.rateDist::samples             134870                       # Number of instructions fetched each cycle (Total)
system.cpu.fetch.rateDist::mean              0.846541                       # Number of instructions fetched each cycle (Total)
system.cpu.fetch.rateDist::stdev             0.531635                       # Number of instructions fetched each cycle (Total)
system.cpu.fetch.rateDist::underflows               0      0.00%      0.00% # Number of instructions fetched each cycle (Total)
system.cpu.fetch.rateDist::0                    30996     22.98%     22.98% # Number of instructions fetched each cycle (Total)
system.cpu.fetch.rateDist::1                    93575     69.38%     92.36% # Number of instructions fetched each cycle (Total)
system.cpu.fetch.rateDist::2                    10299      7.64%    100.00% # Number of instructions fetched each cycle (Total)
system.cpu.fetch.rateDist::overflows                0      0.00%    100.00% # Number of instructions fetched each cycle (Total)
system.cpu.fetch.rateDist::min_value                0                       # Number of instructions fetched each cycle (Total)
system.cpu.fetch.rateDist::max_value                2                       # Number of instructions fetched each cycle (Total)
system.cpu.fetch.rateDist::total               134870                       # Number of instructions fetched each cycle (Total)
system.cpu.fetch.branchRate                  0.114128                       # Number of branch fetches per cycle
system.cpu.fetch.rate                        0.604046                       # Number of inst fetches per cycle
system.cpu.decode.IdleCycles                    21037                       # Number of cycles decode is idle
system.cpu.decode.BlockedCycles                 52092                       # Number of cycles decode is blocked
system.cpu.decode.RunCycles                     48986                       # Number of cycles decode is running
system.cpu.decode.UnblockCycles                 11253                       # Number of cycles decode is unblocking
system.cpu.decode.SquashCycles                   1502                       # Number of cycles decode is squashing
system.cpu.decode.BranchResolved                 5443                       # Number of times decode resolved a branch
system.cpu.decode.BranchMispred                   522                       # Number of times decode detected a branch misprediction
system.cpu.decode.DecodedInsts                  92182                       # Number of instructions handled by decode
system.cpu.decode.SquashedInsts                  3913                       # Number of squashed instructions handled by decode
system.cpu.rename.SquashCycles                   1502                       # Number of cycles rename is squashing
system.cpu.rename.IdleCycles                    32778                       # Number of cycles rename is idle
system.cpu.rename.BlockCycles                    7618                       # Number of cycles rename is blocking
system.cpu.rename.serializeStallCycles          12987                       # count of cycles rename stalled for serializing inst
system.cpu.rename.RunCycles                     47837                       # Number of cycles rename is running
system.cpu.rename.UnblockCycles                 32148                       # Number of cycles rename is unblocking
system.cpu.rename.RenamedInsts                  88741                       # Number of instructions processed by rename
system.cpu.rename.SquashedInsts                  1560                       # Number of squashed instructions processed by rename
system.cpu.rename.ROBFullEvents                   579                       # Number of times rename has blocked due to ROB full
system.cpu.rename.IQFullEvents                     10                       # Number of times rename has blocked due to IQ full
system.cpu.rename.LQFullEvents                  11153                       # Number of times rename has blocked due to LQ full
system.cpu.rename.SQFullEvents                  13985                       # Number of times rename has blocked due to SQ full
system.cpu.rename.FullRegisterEvents                4                       # Number of times there has been no free registers
system.cpu.rename.RenamedOperands               87167                       # Number of destination operands rename has renamed
system.cpu.rename.RenameLookups                405788                       # Number of register rename lookups that rename has made
system.cpu.rename.int_rename_lookups           100050                       # Number of integer rename lookups
system.cpu.rename.fp_rename_lookups                16                       # Number of floating rename lookups
system.cpu.rename.CommittedMaps                 79379                       # Number of HB maps that are committed
system.cpu.rename.UndoneMaps                     7788                       # Number of HB maps that are undone due to squashing
system.cpu.rename.serializingInsts                320                       # count of serializing insts renamed
system.cpu.rename.tempSerializingInsts            320                       # count of temporary serializing insts renamed
system.cpu.rename.skidInsts                     21137                       # count of insts added to the skid buffer
system.cpu.memDep0.insertedLoads                20106                       # Number of loads inserted to the mem dependence unit.
system.cpu.memDep0.insertedStores               14437                       # Number of stores inserted to the mem dependence unit.
system.cpu.memDep0.conflictingLoads              1075                       # Number of conflicting loads.
system.cpu.memDep0.conflictingStores               99                       # Number of conflicting stores.
system.cpu.iq.iqInstsAdded                      86860                       # Number of instructions added to the IQ (excludes non-spec)
system.cpu.iq.iqNonSpecInstsAdded                 632                       # Number of non-speculative instructions added to the IQ
system.cpu.iq.iqInstsIssued                     86031                       # Number of instructions issued
system.cpu.iq.iqSquashedInstsIssued               123                       # Number of squashed instructions issued
system.cpu.iq.iqSquashedInstsExamined            5520                       # Number of squashed instructions iterated over during squash; mainly for profiling
system.cpu.iq.iqSquashedOperandsExamined        13386                       # Number of squashed operands that are examined and possibly removed from graph
system.cpu.iq.iqSquashedNonSpecRemoved              2                       # Number of squashed non-spec instructions that were removed
system.cpu.iq.issued_per_cycle::samples        134870                       # Number of insts issued each cycle
system.cpu.iq.issued_per_cycle::mean         0.637881                       # Number of insts issued each cycle
system.cpu.iq.issued_per_cycle::stdev        0.757768                       # Number of insts issued each cycle
system.cpu.iq.issued_per_cycle::underflows            0      0.00%      0.00% # Number of insts issued each cycle
system.cpu.iq.issued_per_cycle::0               71984     53.37%     53.37% # Number of insts issued each cycle
system.cpu.iq.issued_per_cycle::1               39741     29.47%     82.84% # Number of insts issued each cycle
system.cpu.iq.issued_per_cycle::2               23145     17.16%    100.00% # Number of insts issued each cycle
system.cpu.iq.issued_per_cycle::overflows            0      0.00%    100.00% # Number of insts issued each cycle
system.cpu.iq.issued_per_cycle::min_value            0                       # Number of insts issued each cycle
system.cpu.iq.issued_per_cycle::max_value            2                       # Number of insts issued each cycle
system.cpu.iq.issued_per_cycle::total          134870                       # Number of insts issued each cycle
system.cpu.iq.fu_full::No_OpClass                   0      0.00%      0.00% # attempts to use FU when none available
system.cpu.iq.fu_full::IntAlu                       0      0.00%      0.00% # attempts to use FU when none available
system.cpu.iq.fu_full::IntMult                      0      0.00%      0.00% # attempts to use FU when none available
system.cpu.iq.fu_full::IntDiv                       0      0.00%      0.00% # attempts to use FU when none available
system.cpu.iq.fu_full::FloatAdd                     0      0.00%      0.00% # attempts to use FU when none available
system.cpu.iq.fu_full::FloatCmp                     0      0.00%      0.00% # attempts to use FU when none available
system.cpu.iq.fu_full::FloatCvt                     0      0.00%      0.00% # attempts to use FU when none available
system.cpu.iq.fu_full::FloatMult                    0      0.00%      0.00% # attempts to use FU when none available
system.cpu.iq.fu_full::FloatMultAcc                 0      0.00%      0.00% # attempts to use FU when none available
system.cpu.iq.fu_full::FloatDiv                     0      0.00%      0.00% # attempts to use FU when none available
system.cpu.iq.fu_full::FloatMisc                    0      0.00%      0.00% # attempts to use FU when none available
system.cpu.iq.fu_full::FloatSqrt                    0      0.00%      0.00% # attempts to use FU when none available
system.cpu.iq.fu_full::SimdAdd                      0      0.00%      0.00% # attempts to use FU when none available
system.cpu.iq.fu_full::SimdAddAcc                   0      0.00%      0.00% # attempts to use FU when none available
system.cpu.iq.fu_full::SimdAlu                      0      0.00%      0.00% # attempts to use FU when none available
system.cpu.iq.fu_full::SimdCmp                      0      0.00%      0.00% # attempts to use FU when none available
system.cpu.iq.fu_full::SimdCvt                      0      0.00%      0.00% # attempts to use FU when none available
system.cpu.iq.fu_full::SimdMisc                     0      0.00%      0.00% # attempts to use FU when none available
system.cpu.iq.fu_full::SimdMult                     0      0.00%      0.00% # attempts to use FU when none available
system.cpu.iq.fu_full::SimdMultAcc                  0      0.00%      0.00% # attempts to use FU when none available
system.cpu.iq.fu_full::SimdShift                    0      0.00%      0.00% # attempts to use FU when none available
system.cpu.iq.fu_full::SimdShiftAcc                 0      0.00%      0.00% # attempts to use FU when none available
system.cpu.iq.fu_full::SimdSqrt                     0      0.00%      0.00% # attempts to use FU when none available
system.cpu.iq.fu_full::SimdFloatAdd                 0      0.00%      0.00% # attempts to use FU when none available
system.cpu.iq.fu_full::SimdFloatAlu                 0      0.00%      0.00% # attempts to use FU when none available
system.cpu.iq.fu_full::SimdFloatCmp                 0      0.00%      0.00% # attempts to use FU when none available
system.cpu.iq.fu_full::SimdFloatCvt                 0      0.00%      0.00% # attempts to use FU when none available
system.cpu.iq.fu_full::SimdFloatDiv                 0      0.00%      0.00% # attempts to use FU when none available
system.cpu.iq.fu_full::SimdFloatMisc                0      0.00%      0.00% # attempts to use FU when none available
system.cpu.iq.fu_full::SimdFloatMult                0      0.00%      0.00% # attempts to use FU when none available
system.cpu.iq.fu_full::SimdFloatMultAcc             0      0.00%      0.00% # attempts to use FU when none available
system.cpu.iq.fu_full::SimdFloatSqrt                0      0.00%      0.00% # attempts to use FU when none available
system.cpu.iq.fu_full::MemRead                   2263     51.15%     51.15% # attempts to use FU when none available
system.cpu.iq.fu_full::MemWrite                  2158     48.78%     99.93% # attempts to use FU when none available
system.cpu.iq.fu_full::FloatMemRead                 0      0.00%     99.93% # attempts to use FU when none available
system.cpu.iq.fu_full::FloatMemWrite                3      0.07%    100.00% # attempts to use FU when none available
system.cpu.iq.fu_full::IprAccess                    0      0.00%    100.00% # attempts to use FU when none available
system.cpu.iq.fu_full::InstPrefetch                 0      0.00%    100.00% # attempts to use FU when none available
system.cpu.iq.FU_type_0::No_OpClass                 8      0.01%      0.01% # Type of FU issued
system.cpu.iq.FU_type_0::IntAlu                 52151     60.62%     60.63% # Type of FU issued
system.cpu.iq.FU_type_0::IntMult                   12      0.01%     60.64% # Type of FU issued
system.cpu.iq.FU_type_0::IntDiv                     0      0.00%     60.64% # Type of FU issued
system.cpu.iq.FU_type_0::FloatAdd                   0      0.00%     60.64% # Type of FU issued
system.cpu.iq.FU_type_0::FloatCmp                   0      0.00%     60.64% # Type of FU issued
system.cpu.iq.FU_type_0::FloatCvt                   0      0.00%     60.64% # Type of FU issued
system.cpu.iq.FU_type_0::FloatMult                  0      0.00%     60.64% # Type of FU issued
system.cpu.iq.FU_type_0::FloatMultAcc               0      0.00%     60.64% # Type of FU issued
system.cpu.iq.FU_type_0::FloatDiv                   0      0.00%     60.64% # Type of FU issued
system.cpu.iq.FU_type_0::FloatMisc                  0      0.00%     60.64% # Type of FU issued
system.cpu.iq.FU_type_0::FloatSqrt                  0      0.00%     60.64% # Type of FU issued
system.cpu.iq.FU_type_0::SimdAdd                    0      0.00%     60.64% # Type of FU issued
system.cpu.iq.FU_type_0::SimdAddAcc                 0      0.00%     60.64% # Type of FU issued
system.cpu.iq.FU_type_0::SimdAlu                    0      0.00%     60.64% # Type of FU issued
system.cpu.iq.FU_type_0::SimdCmp                    0      0.00%     60.64% # Type of FU issued
system.cpu.iq.FU_type_0::SimdCvt                    0      0.00%     60.64% # Type of FU issued
system.cpu.iq.FU_type_0::SimdMisc                   0      0.00%     60.64% # Type of FU issued
system.cpu.iq.FU_type_0::SimdMult                   0      0.00%     60.64% # Type of FU issued
system.cpu.iq.FU_type_0::SimdMultAcc                0      0.00%     60.64% # Type of FU issued
system.cpu.iq.FU_type_0::SimdShift                  0      0.00%     60.64% # Type of FU issued
system.cpu.iq.FU_type_0::SimdShiftAcc               0      0.00%     60.64% # Type of FU issued
system.cpu.iq.FU_type_0::SimdSqrt                   0      0.00%     60.64% # Type of FU issued
system.cpu.iq.FU_type_0::SimdFloatAdd               0      0.00%     60.64% # Type of FU issued
system.cpu.iq.FU_type_0::SimdFloatAlu               0      0.00%     60.64% # Type of FU issued
system.cpu.iq.FU_type_0::SimdFloatCmp               0      0.00%     60.64% # Type of FU issued
system.cpu.iq.FU_type_0::SimdFloatCvt               0      0.00%     60.64% # Type of FU issued
system.cpu.iq.FU_type_0::SimdFloatDiv               0      0.00%     60.64% # Type of FU issued
system.cpu.iq.FU_type_0::SimdFloatMisc              0      0.00%     60.64% # Type of FU issued
system.cpu.iq.FU_type_0::SimdFloatMult              0      0.00%     60.64% # Type of FU issued
system.cpu.iq.FU_type_0::SimdFloatMultAcc            0      0.00%     60.64% # Type of FU issued
system.cpu.iq.FU_type_0::SimdFloatSqrt              0      0.00%     60.64% # Type of FU issued
system.cpu.iq.FU_type_0::MemRead                19626     22.81%     83.45% # Type of FU issued
system.cpu.iq.FU_type_0::MemWrite               14218     16.53%     99.98% # Type of FU issued
system.cpu.iq.FU_type_0::FloatMemRead               0      0.00%     99.98% # Type of FU issued
system.cpu.iq.FU_type_0::FloatMemWrite             16      0.02%    100.00% # Type of FU issued
system.cpu.iq.FU_type_0::IprAccess                  0      0.00%    100.00% # Type of FU issued
system.cpu.iq.FU_type_0::InstPrefetch               0      0.00%    100.00% # Type of FU issued
system.cpu.iq.FU_type_0::total                  86031                       # Type of FU issued
system.cpu.iq.rate                           0.535949                       # Inst issue rate
system.cpu.iq.fu_busy_cnt                        4424                       # FU busy when requested
system.cpu.iq.fu_busy_rate                   0.051423                       # FU busy rate (busy events/executed inst)
system.cpu.iq.int_inst_queue_reads             311444                       # Number of integer instruction queue reads
system.cpu.iq.int_inst_queue_writes             93025                       # Number of integer instruction queue writes
system.cpu.iq.int_inst_queue_wakeup_accesses        84404                       # Number of integer instruction queue wakeup accesses
system.cpu.iq.fp_inst_queue_reads                  35                       # Number of floating instruction queue reads
system.cpu.iq.fp_inst_queue_writes                 16                       # Number of floating instruction queue writes
system.cpu.iq.fp_inst_queue_wakeup_accesses           16                       # Number of floating instruction queue wakeup accesses
system.cpu.iq.vec_inst_queue_reads                  0                       # Number of vector instruction queue reads
system.cpu.iq.vec_inst_queue_writes                 0                       # Number of vector instruction queue writes
system.cpu.iq.vec_inst_queue_wakeup_accesses            0                       # Number of vector instruction queue wakeup accesses
system.cpu.iq.int_alu_accesses                  90428                       # Number of integer alu accesses
system.cpu.iq.fp_alu_accesses                      19                       # Number of floating point alu accesses
system.cpu.iq.vec_alu_accesses                      0                       # Number of vector alu accesses
system.cpu.iew.lsq.thread0.forwLoads             1968                       # Number of loads that had data forwarded from stores
system.cpu.iew.lsq.thread0.invAddrLoads             0                       # Number of loads ignored due to an invalid address
system.cpu.iew.lsq.thread0.squashedLoads         1653                       # Number of loads squashed
system.cpu.iew.lsq.thread0.ignoredResponses            3                       # Number of memory responses ignored because the instruction is squashed
system.cpu.iew.lsq.thread0.memOrderViolation           29                       # Number of memory ordering violations
system.cpu.iew.lsq.thread0.squashedStores          598                       # Number of stores squashed
system.cpu.iew.lsq.thread0.invAddrSwpfs             0                       # Number of software prefetches ignored due to an invalid address
system.cpu.iew.lsq.thread0.blockedLoads             0                       # Number of blocked loads due to partial load-store forwarding
system.cpu.iew.lsq.thread0.rescheduledLoads            0                       # Number of loads that were rescheduled
system.cpu.iew.lsq.thread0.cacheBlocked             0                       # Number of times an access to memory failed due to the cache being blocked
system.cpu.iew.iewIdleCycles                        0                       # Number of cycles IEW is idle
system.cpu.iew.iewSquashCycles                   1502                       # Number of cycles IEW is squashing
system.cpu.iew.iewBlockCycles                    1547                       # Number of cycles IEW is blocking
system.cpu.iew.iewUnblockCycles                  4312                       # Number of cycles IEW is unblocking
system.cpu.iew.iewDispatchedInsts               87492                       # Number of instructions dispatched to IQ
system.cpu.iew.iewDispSquashedInsts                 0                       # Number of squashed instructions skipped by dispatch
system.cpu.iew.iewDispLoadInsts                 20106                       # Number of dispatched load instructions
system.cpu.iew.iewDispStoreInsts                14437                       # Number of dispatched store instructions
system.cpu.iew.iewDispNonSpecInsts                321                       # Number of dispatched non-speculative instructions
system.cpu.iew.iewIQFullEvents                      1                       # Number of times the IQ has become full, causing a stall
system.cpu.iew.iewLSQFullEvents                  4103                       # Number of times the LSQ has become full, causing a stall
system.cpu.iew.memOrderViolationEvents             29                       # Number of memory order violations
system.cpu.iew.predictedTakenIncorrect            804                       # Number of branches that were predicted taken incorrectly
system.cpu.iew.predictedNotTakenIncorrect          674                       # Number of branches that were predicted not taken incorrectly
system.cpu.iew.branchMispredicts                 1478                       # Number of branch mispredicts detected at execute
system.cpu.iew.iewExecutedInsts                 84773                       # Number of executed instructions
system.cpu.iew.iewExecLoadInsts                 18902                       # Number of load instructions executed
system.cpu.iew.iewExecSquashedInsts              1258                       # Number of squashed instructions skipped in execute
system.cpu.iew.exec_swp                             0                       # number of swp insts executed
system.cpu.iew.exec_nop                             0                       # number of nop insts executed
system.cpu.iew.exec_refs                        32998                       # number of memory reference insts executed
system.cpu.iew.exec_branches                    13281                       # Number of branches executed
system.cpu.iew.exec_stores                      14096                       # Number of stores executed
system.cpu.iew.exec_rate                     0.528112                       # Inst execution rate
system.cpu.iew.wb_sent                          84552                       # cumulative count of insts sent to commit
system.cpu.iew.wb_count                         84420                       # cumulative count of insts written-back
system.cpu.iew.wb_producers                     37837                       # num instructions producing a value
system.cpu.iew.wb_consumers                     52349                       # num instructions consuming a value
system.cpu.iew.wb_rate                       0.525912                       # insts written-back per cycle
system.cpu.iew.wb_fanout                     0.722784                       # average fanout of values written-back
system.cpu.commit.commitSquashedInsts            4600                       # The number of squashed insts skipped by commit
system.cpu.commit.commitNonSpecStalls             630                       # The number of times commit has been forced to stall to communicate backwards
system.cpu.commit.branchMispredicts              1461                       # The number of times a branch was mispredicted
system.cpu.commit.committed_per_cycle::samples       132051                       # Number of insts commited each cycle
system.cpu.commit.committed_per_cycle::mean     0.620753                       # Number of insts commited each cycle
system.cpu.commit.committed_per_cycle::stdev     0.791795                       # Number of insts commited each cycle
system.cpu.commit.committed_per_cycle::underflows            0      0.00%      0.00% # Number of insts commited each cycle
system.cpu.commit.committed_per_cycle::0        75930     57.50%     57.50% # Number of insts commited each cycle
system.cpu.commit.committed_per_cycle::1        30271     22.92%     80.42% # Number of insts commited each cycle
system.cpu.commit.committed_per_cycle::2        25850     19.58%    100.00% # Number of insts commited each cycle
system.cpu.commit.committed_per_cycle::overflows            0      0.00%    100.00% # Number of insts commited each cycle
system.cpu.commit.committed_per_cycle::min_value            0                       # Number of insts commited each cycle
system.cpu.commit.committed_per_cycle::max_value            2                       # Number of insts commited each cycle
system.cpu.commit.committed_per_cycle::total       132051                       # Number of insts commited each cycle
system.cpu.commit.committedInsts                70422                       # Number of instructions committed
system.cpu.commit.committedOps                  81971                       # Number of ops (including micro ops) committed
system.cpu.commit.swp_count                         0                       # Number of s/w prefetches committed
system.cpu.commit.refs                          32292                       # Number of memory references committed
system.cpu.commit.loads                         18453                       # Number of loads committed
system.cpu.commit.membars                         311                       # Number of memory barriers committed
system.cpu.commit.branches                      12836                       # Number of branches committed
system.cpu.commit.vec_insts                         0                       # Number of committed Vector instructions.
system.cpu.commit.fp_insts                         16                       # Number of committed floating point instructions.
system.cpu.commit.int_insts                     74181                       # Number of committed integer instructions.
system.cpu.commit.function_calls                 2269                       # Number of function calls committed.
system.cpu.commit.op_class_0::No_OpClass            0      0.00%      0.00% # Class of committed instruction
system.cpu.commit.op_class_0::IntAlu            49675     60.60%     60.60% # Class of committed instruction
system.cpu.commit.op_class_0::IntMult               4      0.00%     60.61% # Class of committed instruction
system.cpu.commit.op_class_0::IntDiv                0      0.00%     60.61% # Class of committed instruction
system.cpu.commit.op_class_0::FloatAdd              0      0.00%     60.61% # Class of committed instruction
system.cpu.commit.op_class_0::FloatCmp              0      0.00%     60.61% # Class of committed instruction
system.cpu.commit.op_class_0::FloatCvt              0      0.00%     60.61% # Class of committed instruction
system.cpu.commit.op_class_0::FloatMult             0      0.00%     60.61% # Class of committed instruction
system.cpu.commit.op_class_0::FloatMultAcc            0      0.00%     60.61% # Class of committed instruction
system.cpu.commit.op_class_0::FloatDiv              0      0.00%     60.61% # Class of committed instruction
system.cpu.commit.op_class_0::FloatMisc             0      0.00%     60.61% # Class of committed instruction
system.cpu.commit.op_class_0::FloatSqrt             0      0.00%     60.61% # Class of committed instruction
system.cpu.commit.op_class_0::SimdAdd               0      0.00%     60.61% # Class of committed instruction
system.cpu.commit.op_class_0::SimdAddAcc            0      0.00%     60.61% # Class of committed instruction
system.cpu.commit.op_class_0::SimdAlu               0      0.00%     60.61% # Class of committed instruction
system.cpu.commit.op_class_0::SimdCmp               0      0.00%     60.61% # Class of committed instruction
system.cpu.commit.op_class_0::SimdCvt               0      0.00%     60.61% # Class of committed instruction
system.cpu.commit.op_class_0::SimdMisc              0      0.00%     60.61% # Class of committed instruction
system.cpu.commit.op_class_0::SimdMult              0      0.00%     60.61% # Class of committed instruction
system.cpu.commit.op_class_0::SimdMultAcc            0      0.00%     60.61% # Class of committed instruction
system.cpu.commit.op_class_0::SimdShift             0      0.00%     60.61% # Class of committed instruction
system.cpu.commit.op_class_0::SimdShiftAcc            0      0.00%     60.61% # Class of committed instruction
system.cpu.commit.op_class_0::SimdSqrt              0      0.00%     60.61% # Class of committed instruction
system.cpu.commit.op_class_0::SimdFloatAdd            0      0.00%     60.61% # Class of committed instruction
system.cpu.commit.op_class_0::SimdFloatAlu            0      0.00%     60.61% # Class of committed instruction
system.cpu.commit.op_class_0::SimdFloatCmp            0      0.00%     60.61% # Class of committed instruction
system.cpu.commit.op_class_0::SimdFloatCvt            0      0.00%     60.61% # Class of committed instruction
system.cpu.commit.op_class_0::SimdFloatDiv            0      0.00%     60.61% # Class of committed instruction
system.cpu.commit.op_class_0::SimdFloatMisc            0      0.00%     60.61% # Class of committed instruction
system.cpu.commit.op_class_0::SimdFloatMult            0      0.00%     60.61% # Class of committed instruction
system.cpu.commit.op_class_0::SimdFloatMultAcc            0      0.00%     60.61% # Class of committed instruction
system.cpu.commit.op_class_0::SimdFloatSqrt            0      0.00%     60.61% # Class of committed instruction
system.cpu.commit.op_class_0::MemRead           18453     22.51%     83.12% # Class of committed instruction
system.cpu.commit.op_class_0::MemWrite          13823     16.86%     99.98% # Class of committed instruction
system.cpu.commit.op_class_0::FloatMemRead            0      0.00%     99.98% # Class of committed instruction
system.cpu.commit.op_class_0::FloatMemWrite           16      0.02%    100.00% # Class of committed instruction
system.cpu.commit.op_class_0::IprAccess             0      0.00%    100.00% # Class of committed instruction
system.cpu.commit.op_class_0::InstPrefetch            0      0.00%    100.00% # Class of committed instruction
system.cpu.commit.op_class_0::total             81971                       # Class of committed instruction
system.cpu.commit.bw_lim_events                 25850                       # number cycles where commit BW limit reached
system.cpu.rob.rob_reads                       192629                       # The number of ROB reads
system.cpu.rob.rob_writes                      175963                       # The number of ROB writes
system.cpu.timesIdled                             389                       # Number of times that the entire CPU went into an idle state and unscheduled itself
system.cpu.idleCycles                           25651                       # Total number of cycles that the CPU has spent unscheduled due to idling
system.cpu.committedInsts                       70422                       # Number of Instructions Simulated
system.cpu.committedOps                         81971                       # Number of Ops (including micro ops) Simulated
system.cpu.cpi                               2.279416                       # CPI: Cycles Per Instruction
system.cpu.cpi_total                         2.279416                       # CPI: Total CPI of All Threads
system.cpu.ipc                               0.438709                       # IPC: Instructions Per Cycle
system.cpu.ipc_total                         0.438709                       # IPC: Total IPC of All Threads
system.cpu.int_regfile_reads                    90098                       # number of integer regfile reads
system.cpu.int_regfile_writes                   54777                       # number of integer regfile writes
system.cpu.fp_regfile_reads                        16                       # number of floating regfile reads
system.cpu.cc_regfile_reads                    310508                       # number of cc regfile reads
system.cpu.cc_regfile_writes                    24468                       # number of cc regfile writes
system.cpu.misc_regfile_reads                   36386                       # number of misc regfile reads
[...]
system.cpu.dcache.overall_avg_mshr_miss_latency::cpu.data 98357.111111                       # average overall mshr miss latency
system.cpu.dcache.overall_avg_mshr_miss_latency::total 98357.111111                       # average overall mshr miss latency
system.cpu.dtb_walker_cache.tags.pwrStateResidencyTicks::UNDEFINED      8868118                       # Cumulative time (in ticks) in various power states
system.cpu.dtb_walker_cache.tags.replacements            0                       # number of replacements
system.cpu.dtb_walker_cache.tags.tagsinuse            0                       # Cycle average of tags in use
system.cpu.dtb_walker_cache.tags.total_refs            0                       # Total number of references to valid blocks.
system.cpu.dtb_walker_cache.tags.sampled_refs            0                       # Sample count of references to valid blocks.
system.cpu.dtb_walker_cache.tags.avg_refs          nan                       # Average number of references to valid blocks.
system.cpu.dtb_walker_cache.tags.warmup_cycle            0                       # Cycle when the warmup percentage was hit.
system.cpu.dtb_walker_cache.tags.tag_accesses            0                       # Number of tag accesses
system.cpu.dtb_walker_cache.tags.data_accesses            0                       # Number of data accesses
system.cpu.dtb_walker_cache.pwrStateResidencyTicks::UNDEFINED      8868118                       # Cumulative time (in ticks) in various power states
system.cpu.dtb_walker_cache.blocked_cycles::no_mshrs            0                       # number of cycles access was blocked
system.cpu.dtb_walker_cache.blocked_cycles::no_targets            0                       # number of cycles access was blocked
system.cpu.dtb_walker_cache.blocked::no_mshrs            0                       # number of cycles access was blocked
system.cpu.dtb_walker_cache.blocked::no_targets            0                       # number of cycles access was blocked
system.cpu.dtb_walker_cache.avg_blocked_cycles::no_mshrs          nan                       # average number of cycles each access was blocked
system.cpu.dtb_walker_cache.avg_blocked_cycles::no_targets          nan                       # average number of cycles each access was blocked
system.cpu.icache.tags.pwrStateResidencyTicks::UNDEFINED      8868118                       # Cumulative time (in ticks) in various power states
system.cpu.icache.tags.replacements                40                       # number of replacements
system.cpu.icache.tags.tagsinuse           454.993706                       # Cycle average of tags in use
system.cpu.icache.tags.total_refs              165061                       # Total number of references to valid blocks.
system.cpu.icache.tags.sampled_refs               507                       # Sample count of references to valid blocks.
system.cpu.icache.tags.avg_refs            325.564103                       # Average number of references to valid blocks.
system.cpu.icache.tags.warmup_cycle                 0                       # Cycle when the warmup percentage was hit.
system.cpu.icache.tags.occ_blocks::cpu.inst   454.993706                       # Average occupied blocks per requestor
system.cpu.icache.tags.occ_percent::cpu.inst     0.888660                       # Average percentage of cache occupancy
system.cpu.icache.tags.occ_percent::total     0.888660                       # Average percentage of cache occupancy
system.cpu.icache.tags.occ_task_id_blocks::1024          467                       # Occupied blocks per task id
system.cpu.icache.tags.age_task_id_blocks_1024::0           64                       # Occupied blocks per task id
system.cpu.icache.tags.age_task_id_blocks_1024::1          120                       # Occupied blocks per task id
system.cpu.icache.tags.age_task_id_blocks_1024::2          283                       # Occupied blocks per task id
system.cpu.icache.tags.occ_task_id_percent::1024     0.912109                       # Percentage of cache occupancy per task id
system.cpu.icache.tags.tag_accesses             10403                       # Number of tag accesses
system.cpu.icache.tags.data_accesses            10403                       # Number of data accesses
system.cpu.icache.pwrStateResidencyTicks::UNDEFINED      8868118                       # Cumulative time (in ticks) in various power states
system.cpu.icache.ReadReq_hits::cpu.inst         5108                       # number of ReadReq hits
system.cpu.icache.ReadReq_hits::total            5108                       # number of ReadReq hits
system.cpu.icache.demand_hits::cpu.inst          5108                       # number of demand (read+write) hits
system.cpu.icache.demand_hits::total             5108                       # number of demand (read+write) hits
system.cpu.icache.overall_hits::cpu.inst         5108                       # number of overall hits
system.cpu.icache.overall_hits::total            5108                       # number of overall hits
system.cpu.icache.ReadReq_misses::cpu.inst           65                       # number of ReadReq misses
system.cpu.icache.ReadReq_misses::total            65                       # number of ReadReq misses
system.cpu.icache.demand_misses::cpu.inst           65                       # number of demand (read+write) misses
system.cpu.icache.demand_misses::total             65                       # number of demand (read+write) misses
system.cpu.icache.overall_misses::cpu.inst           65                       # number of overall misses
system.cpu.icache.overall_misses::total            65                       # number of overall misses
system.cpu.icache.ReadReq_miss_latency::cpu.inst      5287746                       # number of ReadReq miss cycles
system.cpu.icache.ReadReq_miss_latency::total      5287746                       # number of ReadReq miss cycles
system.cpu.icache.demand_miss_latency::cpu.inst      5287746                       # number of demand (read+write) miss cycles
system.cpu.icache.demand_miss_latency::total      5287746                       # number of demand (read+write) miss cycles
system.cpu.icache.overall_miss_latency::cpu.inst      5287746                       # number of overall miss cycles
system.cpu.icache.overall_miss_latency::total      5287746                       # number of overall miss cycles
system.cpu.icache.ReadReq_accesses::cpu.inst         5173                       # number of ReadReq accesses(hits+misses)
system.cpu.icache.ReadReq_accesses::total         5173                       # number of ReadReq accesses(hits+misses)
system.cpu.icache.demand_accesses::cpu.inst         5173                       # number of demand (read+write) accesses
system.cpu.icache.demand_accesses::total         5173                       # number of demand (read+write) accesses
system.cpu.icache.overall_accesses::cpu.inst         5173                       # number of overall (read+write) accesses
system.cpu.icache.overall_accesses::total         5173                       # number of overall (read+write) accesses
system.cpu.icache.ReadReq_miss_rate::cpu.inst     0.012565                       # miss rate for ReadReq accesses
system.cpu.icache.ReadReq_miss_rate::total     0.012565                       # miss rate for ReadReq accesses
system.cpu.icache.demand_miss_rate::cpu.inst     0.012565                       # miss rate for demand accesses
system.cpu.icache.demand_miss_rate::total     0.012565                       # miss rate for demand accesses
system.cpu.icache.overall_miss_rate::cpu.inst     0.012565                       # miss rate for overall accesses
system.cpu.icache.overall_miss_rate::total     0.012565                       # miss rate for overall accesses
system.cpu.icache.ReadReq_avg_miss_latency::cpu.inst 81349.938462                       # average ReadReq miss latency
system.cpu.icache.ReadReq_avg_miss_latency::total 81349.938462                       # average ReadReq miss latency
system.cpu.icache.demand_avg_miss_latency::cpu.inst 81349.938462                       # average overall miss latency
system.cpu.icache.demand_avg_miss_latency::total 81349.938462                       # average overall miss latency
system.cpu.icache.overall_avg_miss_latency::cpu.inst 81349.938462                       # average overall miss latency
system.cpu.icache.overall_avg_miss_latency::total 81349.938462                       # average overall miss latency
system.cpu.icache.blocked_cycles::no_mshrs          758                       # number of cycles access was blocked
system.cpu.icache.blocked_cycles::no_targets            0                       # number of cycles access was blocked
system.cpu.icache.blocked::no_mshrs                12                       # number of cycles access was blocked
system.cpu.icache.blocked::no_targets               0                       # number of cycles access was blocked
system.cpu.icache.avg_blocked_cycles::no_mshrs    63.166667                       # average number of cycles each access was blocked
system.cpu.icache.avg_blocked_cycles::no_targets          nan                       # average number of cycles each access was blocked
system.cpu.icache.writebacks::writebacks           40                       # number of writebacks
system.cpu.icache.writebacks::total                40                       # number of writebacks
system.cpu.icache.ReadReq_mshr_hits::cpu.inst            8                       # number of ReadReq MSHR hits
system.cpu.icache.ReadReq_mshr_hits::total            8                       # number of ReadReq MSHR hits
system.cpu.icache.demand_mshr_hits::cpu.inst            8                       # number of demand (read+write) MSHR hits
system.cpu.icache.demand_mshr_hits::total            8                       # number of demand (read+write) MSHR hits
system.cpu.icache.overall_mshr_hits::cpu.inst            8                       # number of overall MSHR hits
system.cpu.icache.overall_mshr_hits::total            8                       # number of overall MSHR hits
system.cpu.icache.ReadReq_mshr_misses::cpu.inst           57                       # number of ReadReq MSHR misses
system.cpu.icache.ReadReq_mshr_misses::total           57                       # number of ReadReq MSHR misses
system.cpu.icache.demand_mshr_misses::cpu.inst           57                       # number of demand (read+write) MSHR misses
system.cpu.icache.demand_mshr_misses::total           57                       # number of demand (read+write) MSHR misses
system.cpu.icache.overall_mshr_misses::cpu.inst           57                       # number of overall MSHR misses
system.cpu.icache.overall_mshr_misses::total           57                       # number of overall MSHR misses
system.cpu.icache.ReadReq_mshr_miss_latency::cpu.inst      4799649                       # number of ReadReq MSHR miss cycles
system.cpu.icache.ReadReq_mshr_miss_latency::total      4799649                       # number of ReadReq MSHR miss cycles
system.cpu.icache.demand_mshr_miss_latency::cpu.inst      4799649                       # number of demand (read+write) MSHR miss cycles
system.cpu.icache.demand_mshr_miss_latency::total      4799649                       # number of demand (read+write) MSHR miss cycles
system.cpu.icache.overall_mshr_miss_latency::cpu.inst      4799649                       # number of overall MSHR miss cycles
system.cpu.icache.overall_mshr_miss_latency::total      4799649                       # number of overall MSHR miss cycles
system.cpu.icache.ReadReq_mshr_miss_rate::cpu.inst     0.011019                       # mshr miss rate for ReadReq accesses
system.cpu.icache.ReadReq_mshr_miss_rate::total     0.011019                       # mshr miss rate for ReadReq accesses
system.cpu.icache.demand_mshr_miss_rate::cpu.inst     0.011019                       # mshr miss rate for demand accesses
system.cpu.icache.demand_mshr_miss_rate::total     0.011019                       # mshr miss rate for demand accesses
system.cpu.icache.overall_mshr_miss_rate::cpu.inst     0.011019                       # mshr miss rate for overall accesses
system.cpu.icache.overall_mshr_miss_rate::total     0.011019                       # mshr miss rate for overall accesses
system.cpu.icache.ReadReq_avg_mshr_miss_latency::cpu.inst 84204.368421                       # average ReadReq mshr miss latency
system.cpu.icache.ReadReq_avg_mshr_miss_latency::total 84204.368421                       # average ReadReq mshr miss latency
system.cpu.icache.demand_avg_mshr_miss_latency::cpu.inst 84204.368421                       # average overall mshr miss latency
system.cpu.icache.demand_avg_mshr_miss_latency::total 84204.368421                       # average overall mshr miss latency
system.cpu.icache.overall_avg_mshr_miss_latency::cpu.inst 84204.368421                       # average overall mshr miss latency
system.cpu.icache.overall_avg_mshr_miss_latency::total 84204.368421                       # average overall mshr miss latency
system.cpu.itb_walker_cache.tags.pwrStateResidencyTicks::UNDEFINED      8868118                       # Cumulative time (in ticks) in various power states
system.cpu.itb_walker_cache.tags.replacements            0                       # number of replacements
system.cpu.itb_walker_cache.tags.tagsinuse            0                       # Cycle average of tags in use
system.cpu.itb_walker_cache.tags.total_refs            0                       # Total number of references to valid blocks.
system.cpu.itb_walker_cache.tags.sampled_refs            0                       # Sample count of references to valid blocks.
system.cpu.itb_walker_cache.tags.avg_refs          nan                       # Average number of references to valid blocks.
system.cpu.itb_walker_cache.tags.warmup_cycle            0                       # Cycle when the warmup percentage was hit.
system.cpu.itb_walker_cache.tags.tag_accesses            0                       # Number of tag accesses
system.cpu.itb_walker_cache.tags.data_accesses            0                       # Number of data accesses
system.cpu.itb_walker_cache.pwrStateResidencyTicks::UNDEFINED      8868118                       # Cumulative time (in ticks) in various power states
system.cpu.itb_walker_cache.blocked_cycles::no_mshrs            0                       # number of cycles access was blocked
system.cpu.itb_walker_cache.blocked_cycles::no_targets            0                       # number of cycles access was blocked
system.cpu.itb_walker_cache.blocked::no_mshrs            0                       # number of cycles access was blocked
system.cpu.itb_walker_cache.blocked::no_targets            0                       # number of cycles access was blocked
system.cpu.itb_walker_cache.avg_blocked_cycles::no_mshrs          nan                       # average number of cycles each access was blocked
system.cpu.itb_walker_cache.avg_blocked_cycles::no_targets          nan                       # average number of cycles each access was blocked
system.membus.snoop_filter.tot_requests           115                       # Total number of requests made to the snoop filter.
system.membus.snoop_filter.hit_single_requests           49                       # Number of requests hitting in the snoop filter with a single holder of the requested data.
system.membus.snoop_filter.hit_multi_requests            3                       # Number of requests hitting in the snoop filter with multiple (>1) holders of the requested data.
system.membus.snoop_filter.tot_snoops               0                       # Total number of snoops made to the snoop filter.
system.membus.snoop_filter.hit_single_snoops            0                       # Number of snoops hitting in the snoop filter with a single holder of the requested data.
system.membus.snoop_filter.hit_multi_snoops            0                       # Number of snoops hitting in the snoop filter with multiple (>1) holders of the requested data.
system.membus.pwrStateResidencyTicks::UNDEFINED      8868118                       # Cumulative time (in ticks) in various power states
system.membus.trans_dist::ReadResp                 74                       # Transaction distribution
system.membus.trans_dist::WritebackClean           40                       # Transaction distribution
system.membus.trans_dist::ReadExReq                 1                       # Transaction distribution
system.membus.trans_dist::ReadExResp                1                       # Transaction distribution
system.membus.trans_dist::ReadCleanReq             57                       # Transaction distribution
system.membus.trans_dist::ReadSharedReq            17                       # Transaction distribution
system.membus.pkt_count_system.cpu.icache.mem_side::system.mem_ctrls.port          154                       # Packet count per connected master and slave (bytes)
system.membus.pkt_count_system.cpu.dcache.mem_side::system.mem_ctrls.port           36                       # Packet count per connected master and slave (bytes)
system.membus.pkt_count::total                    190                       # Packet count per connected master and slave (bytes)
system.membus.pkt_size_system.cpu.icache.mem_side::system.mem_ctrls.port         6208                       # Cumulative packet size per connected master and slave (bytes)
system.membus.pkt_size_system.cpu.dcache.mem_side::system.mem_ctrls.port         1152                       # Cumulative packet size per connected master and slave (bytes)
system.membus.pkt_size::total                    7360                       # Cumulative packet size per connected master and slave (bytes)
system.membus.snoops                                0                       # Total snoops (count)
system.membus.snoopTraffic                          0                       # Total snoop traffic (bytes)
system.membus.snoop_fanout::samples                75                       # Request fanout histogram
system.membus.snoop_fanout::mean             0.160000                       # Request fanout histogram
system.membus.snoop_fanout::stdev            0.369075                       # Request fanout histogram
system.membus.snoop_fanout::underflows              0      0.00%      0.00% # Request fanout histogram
system.membus.snoop_fanout::0                      63     84.00%     84.00% # Request fanout histogram
system.membus.snoop_fanout::1                      12     16.00%    100.00% # Request fanout histogram
system.membus.snoop_fanout::2                       0      0.00%    100.00% # Request fanout histogram
system.membus.snoop_fanout::3                       0      0.00%    100.00% # Request fanout histogram
system.membus.snoop_fanout::4                       0      0.00%    100.00% # Request fanout histogram
system.membus.snoop_fanout::overflows               0      0.00%    100.00% # Request fanout histogram
system.membus.snoop_fanout::min_value               0                       # Request fanout histogram
system.membus.snoop_fanout::max_value               1                       # Request fanout histogram
system.membus.snoop_fanout::total                  75                       # Request fanout histogram
system.membus.reqLayer0.occupancy              327712                       # Layer occupancy (ticks)
system.membus.reqLayer0.utilization               3.7                       # Layer utilization (%)
system.membus.respLayer1.occupancy             313330                       # Layer occupancy (ticks)
system.membus.respLayer1.utilization              3.5                       # Layer utilization (%)
system.membus.respLayer2.occupancy              97131                       # Layer occupancy (ticks)
system.membus.respLayer2.utilization              1.1                       # Layer utilization (%)

---------- End Simulation Statistics   ----------
