
---------- Begin Simulation Statistics ----------
sim_seconds                                  0.073996                       # Number of seconds simulated
sim_ticks                                 73996041406                       # Number of ticks simulated
final_tick                                73996041406                       # Number of ticks from beginning of simulation (restored from checkpoints and never reset)
sim_freq                                 1000000000000                       # Frequency of simulated ticks
host_inst_rate                                 261213                       # Simulator instruction rate (inst/s)
host_op_rate                                   309715                       # Simulator op (including micro ops) rate (op/s)
host_tick_rate                              237013353                       # Simulator tick rate (ticks/s)
host_mem_usage                                1199604                       # Number of bytes of host memory used
host_seconds                                   312.20                       # Real time elapsed on the host
sim_insts                                    81551165                       # Number of instructions simulated
sim_ops                                      96693757                       # Number of ops (including micro ops) simulated
system.voltage_domain.voltage                       1                       # Voltage in Volts
system.clk_domain.clock                          1000                       # Clock period in ticks
system.mem_ctrls.pwrStateResidencyTicks::UNDEFINED  73996041406                       # Cumulative time (in ticks) in various power states
system.mem_ctrls.bytes_read::cpu.inst           71552                       # Number of bytes read from this memory
system.mem_ctrls.bytes_read::cpu.data           28032                       # Number of bytes read from this memory
system.mem_ctrls.bytes_read::l2.prefetcher         3456                       # Number of bytes read from this memory
system.mem_ctrls.bytes_read::total             103040                       # Number of bytes read from this memory
system.mem_ctrls.bytes_inst_read::cpu.inst        71552                       # Number of instructions bytes read from this memory
system.mem_ctrls.bytes_inst_read::total         71552                       # Number of instructions bytes read from this memory
system.mem_ctrls.num_reads::cpu.inst             1118                       # Number of read requests responded to by this memory
system.mem_ctrls.num_reads::cpu.data              438                       # Number of read requests responded to by this memory
system.mem_ctrls.num_reads::l2.prefetcher           54                       # Number of read requests responded to by this memory
system.mem_ctrls.num_reads::total                1610                       # Number of read requests responded to by this memory
system.mem_ctrls.bw_read::cpu.inst             966971                       # Total read bandwidth from this memory (bytes/s)
system.mem_ctrls.bw_read::cpu.data             378831                       # Total read bandwidth from this memory (bytes/s)
system.mem_ctrls.bw_read::l2.prefetcher         46705                       # Total read bandwidth from this memory (bytes/s)
system.mem_ctrls.bw_read::total               1392507                       # Total read bandwidth from this memory (bytes/s)
system.mem_ctrls.bw_inst_read::cpu.inst        966971                       # Instruction read bandwidth from this memory (bytes/s)
system.mem_ctrls.bw_inst_read::total           966971                       # Instruction read bandwidth from this memory (bytes/s)
system.mem_ctrls.bw_total::cpu.inst            966971                       # Total bandwidth to/from this memory (bytes/s)
system.mem_ctrls.bw_total::cpu.data            378831                       # Total bandwidth to/from this memory (bytes/s)
system.mem_ctrls.bw_total::l2.prefetcher        46705                       # Total bandwidth to/from this memory (bytes/s)
system.mem_ctrls.bw_total::total              1392507                       # Total bandwidth to/from this memory (bytes/s)
system.mem_ctrls.readReqs                        1611                       # Number of read requests accepted
system.mem_ctrls.writeReqs                          0                       # Number of write requests accepted
system.mem_ctrls.readBursts                      3222                       # Number of DRAM read bursts, including those serviced by the write queue
system.mem_ctrls.writeBursts                        0                       # Number of DRAM write bursts, including those merged in the write queue
system.mem_ctrls.bytesReadDRAM                 103104                       # Total number of bytes read from DRAM
system.mem_ctrls.bytesReadWrQ                       0                       # Total number of bytes read from write queue
system.mem_ctrls.bytesWritten                       0                       # Total number of bytes written to DRAM
system.mem_ctrls.bytesReadSys                  103104                       # Total read bytes from the system interface side
system.mem_ctrls.bytesWrittenSys                    0                       # Total written bytes from the system interface side
system.mem_ctrls.servicedByWrQ                      0                       # Number of DRAM read bursts serviced by the write queue
system.mem_ctrls.mergedWrBursts                     0                       # Number of DRAM write bursts merged with an existing one
system.mem_ctrls.neitherReadNorWriteReqs            0                       # Number of requests that are neither read nor write
system.mem_ctrls.perBankRdBursts::0               502                       # Per bank write bursts
system.mem_ctrls.perBankRdBursts::1               352                       # Per bank write bursts
system.mem_ctrls.perBankRdBursts::2               452                       # Per bank write bursts
system.mem_ctrls.perBankRdBursts::3               464                       # Per bank write bursts
system.mem_ctrls.perBankRdBursts::4               330                       # Per bank write bursts
system.mem_ctrls.perBankRdBursts::5               390                       # Per bank write bursts
system.mem_ctrls.perBankRdBursts::6               526                       # Per bank write bursts
system.mem_ctrls.perBankRdBursts::7               206                       # Per bank write bursts
system.mem_ctrls.perBankWrBursts::0                 0                       # Per bank write bursts
system.mem_ctrls.perBankWrBursts::1                 0                       # Per bank write bursts
system.mem_ctrls.perBankWrBursts::2                 0                       # Per bank write bursts
system.mem_ctrls.perBankWrBursts::3                 0                       # Per bank write bursts
system.mem_ctrls.perBankWrBursts::4                 0                       # Per bank write bursts
system.mem_ctrls.perBankWrBursts::5                 0                       # Per bank write bursts
system.mem_ctrls.perBankWrBursts::6                 0                       # Per bank write bursts
system.mem_ctrls.perBankWrBursts::7                 0                       # Per bank write bursts
system.mem_ctrls.numRdRetry                         0                       # Number of times read queue was full causing retry
system.mem_ctrls.numWrRetry                         0                       # Number of times write queue was full causing retry
system.mem_ctrls.totGap                   73996021414                       # Total gap between requests
system.mem_ctrls.readPktSize::0                     0                       # Read request sizes (log2)
system.mem_ctrls.readPktSize::1                     0                       # Read request sizes (log2)
system.mem_ctrls.readPktSize::2                     0                       # Read request sizes (log2)
system.mem_ctrls.readPktSize::3                     0                       # Read request sizes (log2)
system.mem_ctrls.readPktSize::4                     0                       # Read request sizes (log2)
system.mem_ctrls.readPktSize::5                  3222                       # Read request sizes (log2)
system.mem_ctrls.writePktSize::0                    0                       # Write request sizes (log2)
system.mem_ctrls.writePktSize::1                    0                       # Write request sizes (log2)
system.mem_ctrls.writePktSize::2                    0                       # Write request sizes (log2)
system.mem_ctrls.writePktSize::3                    0                       # Write request sizes (log2)
system.mem_ctrls.writePktSize::4                    0                       # Write request sizes (log2)
system.mem_ctrls.writePktSize::5                    0                       # Write request sizes (log2)
system.mem_ctrls.rdQLenPdf::0                    1153                       # What read queue length does an incoming req see
system.mem_ctrls.rdQLenPdf::1                    1166                       # What read queue length does an incoming req see
system.mem_ctrls.rdQLenPdf::2                     356                       # What read queue length does an incoming req see
system.mem_ctrls.rdQLenPdf::3                     344                       # What read queue length does an incoming req see
system.mem_ctrls.rdQLenPdf::4                      68                       # What read queue length does an incoming req see
system.mem_ctrls.rdQLenPdf::5                      67                       # What read queue length does an incoming req see
system.mem_ctrls.rdQLenPdf::6                      11                       # What read queue length does an incoming req see
system.mem_ctrls.rdQLenPdf::7                      11                       # What read queue length does an incoming req see
system.mem_ctrls.rdQLenPdf::8                       5                       # What read queue length does an incoming req see
system.mem_ctrls.rdQLenPdf::9                       5                       # What read queue length does an incoming req see
system.mem_ctrls.rdQLenPdf::10                      5                       # What read queue length does an incoming req see
system.mem_ctrls.rdQLenPdf::11                      5                       # What read queue length does an incoming req see
system.mem_ctrls.rdQLenPdf::12                      5                       # What read queue length does an incoming req see
system.mem_ctrls.rdQLenPdf::13                      5                       # What read queue length does an incoming req see
system.mem_ctrls.rdQLenPdf::14                      5                       # What read queue length does an incoming req see
system.mem_ctrls.rdQLenPdf::15                      5                       # What read queue length does an incoming req see
system.mem_ctrls.rdQLenPdf::16                      3                       # What read queue length does an incoming req see
system.mem_ctrls.rdQLenPdf::17                      3                       # What read queue length does an incoming req see
system.mem_ctrls.rdQLenPdf::18                      0                       # What read queue length does an incoming req see
system.mem_ctrls.rdQLenPdf::19                      0                       # What read queue length does an incoming req see
system.mem_ctrls.rdQLenPdf::20                      0                       # What read queue length does an incoming req see
system.mem_ctrls.rdQLenPdf::21                      0                       # What read queue length does an incoming req see
system.mem_ctrls.rdQLenPdf::22                      0                       # What read queue length does an incoming req see
system.mem_ctrls.rdQLenPdf::23                      0                       # What read queue length does an incoming req see
system.mem_ctrls.rdQLenPdf::24                      0                       # What read queue length does an incoming req see
system.mem_ctrls.rdQLenPdf::25                      0                       # What read queue length does an incoming req see
system.mem_ctrls.rdQLenPdf::26                      0                       # What read queue length does an incoming req see
system.mem_ctrls.rdQLenPdf::27                      0                       # What read queue length does an incoming req see
system.mem_ctrls.rdQLenPdf::28                      0                       # What read queue length does an incoming req see
system.mem_ctrls.rdQLenPdf::29                      0                       # What read queue length does an incoming req see
system.mem_ctrls.rdQLenPdf::30                      0                       # What read queue length does an incoming req see
system.mem_ctrls.rdQLenPdf::31                      0                       # What read queue length does an incoming req see
system.mem_ctrls.wrQLenPdf::0                       0                       # What write queue length does an incoming req see
system.mem_ctrls.wrQLenPdf::1                       0                       # What write queue length does an incoming req see
system.mem_ctrls.wrQLenPdf::2                       0                       # What write queue length does an incoming req see
system.mem_ctrls.wrQLenPdf::3                       0                       # What write queue length does an incoming req see
system.mem_ctrls.wrQLenPdf::4                       0                       # What write queue length does an incoming req see
system.mem_ctrls.wrQLenPdf::5                       0                       # What write queue length does an incoming req see
system.mem_ctrls.wrQLenPdf::6                       0                       # What write queue length does an incoming req see
system.mem_ctrls.wrQLenPdf::7                       0                       # What write queue length does an incoming req see
system.mem_ctrls.wrQLenPdf::8                       0                       # What write queue length does an incoming req see
system.mem_ctrls.wrQLenPdf::9                       0                       # What write queue length does an incoming req see
system.mem_ctrls.wrQLenPdf::10                      0                       # What write queue length does an incoming req see
system.mem_ctrls.wrQLenPdf::11                      0                       # What write queue length does an incoming req see
system.mem_ctrls.wrQLenPdf::12                      0                       # What write queue length does an incoming req see
system.mem_ctrls.wrQLenPdf::13                      0                       # What write queue length does an incoming req see
system.mem_ctrls.wrQLenPdf::14                      0                       # What write queue length does an incoming req see
system.mem_ctrls.wrQLenPdf::15                      0                       # What write queue length does an incoming req see
system.mem_ctrls.wrQLenPdf::16                      0                       # What write queue length does an incoming req see
system.mem_ctrls.wrQLenPdf::17                      0                       # What write queue length does an incoming req see
system.mem_ctrls.wrQLenPdf::18                      0                       # What write queue length does an incoming req see
system.mem_ctrls.wrQLenPdf::19                      0                       # What write queue length does an incoming req see
system.mem_ctrls.wrQLenPdf::20                      0                       # What write queue length does an incoming req see
system.mem_ctrls.wrQLenPdf::21                      0                       # What write queue length does an incoming req see
system.mem_ctrls.wrQLenPdf::22                      0                       # What write queue length does an incoming req see
system.mem_ctrls.wrQLenPdf::23                      0                       # What write queue length does an incoming req see
system.mem_ctrls.wrQLenPdf::24                      0                       # What write queue length does an incoming req see
system.mem_ctrls.wrQLenPdf::25                      0                       # What write queue length does an incoming req see
system.mem_ctrls.wrQLenPdf::26                      0                       # What write queue length does an incoming req see
system.mem_ctrls.wrQLenPdf::27                      0                       # What write queue length does an incoming req see
system.mem_ctrls.wrQLenPdf::28                      0                       # What write queue length does an incoming req see
system.mem_ctrls.wrQLenPdf::29                      0                       # What write queue length does an incoming req see
system.mem_ctrls.wrQLenPdf::30                      0                       # What write queue length does an incoming req see
system.mem_ctrls.wrQLenPdf::31                      0                       # What write queue length does an incoming req see
system.mem_ctrls.wrQLenPdf::32                      0                       # What write queue length does an incoming req see
system.mem_ctrls.wrQLenPdf::33                      0                       # What write queue length does an incoming req see
system.mem_ctrls.wrQLenPdf::34                      0                       # What write queue length does an incoming req see
system.mem_ctrls.wrQLenPdf::35                      0                       # What write queue length does an incoming req see
system.mem_ctrls.wrQLenPdf::36                      0                       # What write queue length does an incoming req see
system.mem_ctrls.wrQLenPdf::37                      0                       # What write queue length does an incoming req see
system.mem_ctrls.wrQLenPdf::38                      0                       # What write queue length does an incoming req see
system.mem_ctrls.wrQLenPdf::39                      0                       # What write queue length does an incoming req see
system.mem_ctrls.wrQLenPdf::40                      0                       # What write queue length does an incoming req see
system.mem_ctrls.wrQLenPdf::41                      0                       # What write queue length does an incoming req see
system.mem_ctrls.wrQLenPdf::42                      0                       # What write queue length does an incoming req see
system.mem_ctrls.wrQLenPdf::43                      0                       # What write queue length does an incoming req see
system.mem_ctrls.wrQLenPdf::44                      0                       # What write queue length does an incoming req see
system.mem_ctrls.wrQLenPdf::45                      0                       # What write queue length does an incoming req see
system.mem_ctrls.wrQLenPdf::46                      0                       # What write queue length does an incoming req see
system.mem_ctrls.wrQLenPdf::47                      0                       # What write queue length does an incoming req see
system.mem_ctrls.wrQLenPdf::48                      0                       # What write queue length does an incoming req see
system.mem_ctrls.wrQLenPdf::49                      0                       # What write queue length does an incoming req see
system.mem_ctrls.wrQLenPdf::50                      0                       # What write queue length does an incoming req see
system.mem_ctrls.wrQLenPdf::51                      0                       # What write queue length does an incoming req see
system.mem_ctrls.wrQLenPdf::52                      0                       # What write queue length does an incoming req see
system.mem_ctrls.wrQLenPdf::53                      0                       # What write queue length does an incoming req see
system.mem_ctrls.wrQLenPdf::54                      0                       # What write queue length does an incoming req see
system.mem_ctrls.wrQLenPdf::55                      0                       # What write queue length does an incoming req see
system.mem_ctrls.wrQLenPdf::56                      0                       # What write queue length does an incoming req see
system.mem_ctrls.wrQLenPdf::57                      0                       # What write queue length does an incoming req see
system.mem_ctrls.wrQLenPdf::58                      0                       # What write queue length does an incoming req see
system.mem_ctrls.wrQLenPdf::59                      0                       # What write queue length does an incoming req see
system.mem_ctrls.wrQLenPdf::60                      0                       # What write queue length does an incoming req see
system.mem_ctrls.wrQLenPdf::61                      0                       # What write queue length does an incoming req see
system.mem_ctrls.wrQLenPdf::62                      0                       # What write queue length does an incoming req see
system.mem_ctrls.wrQLenPdf::63                      0                       # What write queue length does an incoming req see
system.mem_ctrls.bytesPerActivate::samples          726                       # Bytes accessed per row activation
system.mem_ctrls.bytesPerActivate::mean    141.487603                       # Bytes accessed per row activation
system.mem_ctrls.bytesPerActivate::gmean   104.590101                       # Bytes accessed per row activation
system.mem_ctrls.bytesPerActivate::stdev   132.099990                       # Bytes accessed per row activation
system.mem_ctrls.bytesPerActivate::0-63             2      0.28%      0.28% # Bytes accessed per row activation
system.mem_ctrls.bytesPerActivate::64-127          446     61.43%     61.71% # Bytes accessed per row activation
system.mem_ctrls.bytesPerActivate::128-191           94     12.95%     74.66% # Bytes accessed per row activation
system.mem_ctrls.bytesPerActivate::192-255           54      7.44%     82.09% # Bytes accessed per row activation
system.mem_ctrls.bytesPerActivate::256-319           27      3.72%     85.81% # Bytes accessed per row activation
system.mem_ctrls.bytesPerActivate::320-383           21      2.89%     88.71% # Bytes accessed per row activation
system.mem_ctrls.bytesPerActivate::384-447           24      3.31%     92.01% # Bytes accessed per row activation
system.mem_ctrls.bytesPerActivate::448-511           14      1.93%     93.94% # Bytes accessed per row activation
system.mem_ctrls.bytesPerActivate::512-575           44      6.06%    100.00% # Bytes accessed per row activation
system.mem_ctrls.bytesPerActivate::total          726                       # Bytes accessed per row activation
system.mem_ctrls.totQLat                    169171726                       # Total ticks spent queuing
system.mem_ctrls.totMemAccLat               233611726                       # Total ticks spent from burst creation until serviced by the DRAM
system.mem_ctrls.totBusLat                   16110000                       # Total ticks spent in databus transfers
system.mem_ctrls.avgQLat                     52505.19                       # Average queueing delay per DRAM burst
system.mem_ctrls.avgBusLat                    5000.00                       # Average bus latency per DRAM burst
system.mem_ctrls.avgMemAccLat                72505.19                       # Average memory access latency per DRAM burst
system.mem_ctrls.avgRdBW                         1.39                       # Average DRAM read bandwidth in MiByte/s
system.mem_ctrls.avgWrBW                         0.00                       # Average achieved write bandwidth in MiByte/s
system.mem_ctrls.avgRdBWSys                      1.39                       # Average system read bandwidth in MiByte/s
system.mem_ctrls.avgWrBWSys                      0.00                       # Average system write bandwidth in MiByte/s
system.mem_ctrls.peakBW                       6400.00                       # Theoretical peak bandwidth in MiByte/s
system.mem_ctrls.busUtil                         0.02                       # Data bus utilization in percentage
system.mem_ctrls.busUtilRead                     0.02                       # Data bus utilization in percentage for reads
system.mem_ctrls.busUtilWrite                    0.00                       # Data bus utilization in percentage for writes
system.mem_ctrls.avgRdQLen                       2.00                       # Average read queue length when enqueuing
system.mem_ctrls.avgWrQLen                       0.00                       # Average write queue length when enqueuing
system.mem_ctrls.readRowHits                     2494                       # Number of row buffer hits during reads
system.mem_ctrls.writeRowHits                       0                       # Number of row buffer hits during writes
system.mem_ctrls.readRowHitRate                 77.41                       # Row buffer hit rate for reads
system.mem_ctrls.writeRowHitRate                  nan                       # Row buffer hit rate for writes
system.mem_ctrls.avgGap                   45931732.72                       # Average gap between requests
system.mem_ctrls.pageHitRate                    77.41                       # Row buffer hit rate, read and write combined
system.mem_ctrls_0.actEnergy                  1299480                       # Energy for activate commands per rank (pJ)
system.mem_ctrls_0.preEnergy             683020.800000                       # Energy for precharge commands per rank (pJ)
system.mem_ctrls_0.readEnergy                 3786720                       # Energy for read commands per rank (pJ)
system.mem_ctrls_0.writeEnergy                      0                       # Energy for write commands per rank (pJ)
system.mem_ctrls_0.refreshEnergy             13129740                       # Energy for refresh commands per rank (pJ)
system.mem_ctrls_0.actBackEnergy              5373621                       # Energy for active background per rank (pJ)
system.mem_ctrls_0.preBackEnergy         1250520.000000                       # Energy for precharge background per rank (pJ)
system.mem_ctrls_0.actPowerDownEnergy    11890372.200000                       # Energy for active power-down per rank (pJ)
system.mem_ctrls_0.prePowerDownEnergy    2243596.500000                       # Energy for precharge power-down per rank (pJ)
system.mem_ctrls_0.selfRefreshEnergy     225476302.125000                       # Energy for self refresh per rank (pJ)
system.mem_ctrls_0.totalEnergy           265133372.625001                       # Total energy per rank (pJ)
system.mem_ctrls_0.averagePower              3.583075                       # Core power per rank (mW)
system.mem_ctrls_0.totalIdleTime          73836733454                       # Total Idle time Per DRAM Rank
system.mem_ctrls_0.memoryStateTime::IDLE     22574162                       # Time in different power states
system.mem_ctrls_0.memoryStateTime::REF      71775000                       # Time in different power states
system.mem_ctrls_0.memoryStateTime::SREF  72457095668                       # Time in different power states
system.mem_ctrls_0.memoryStateTime::PRE_PDN    623222043                       # Time in different power states
system.mem_ctrls_0.memoryStateTime::ACT      64958790                       # Time in different power states
system.mem_ctrls_0.memoryStateTime::ACT_PDN    756415743                       # Time in different power states
system.pwrStateResidencyTicks::UNDEFINED  73996041406                       # Cumulative time (in ticks) in various power states
system.cpu.branchPred.lookups                15598636                       # Number of BP lookups
system.cpu.branchPred.condPredicted           9001959                       # Number of conditional branches predicted
system.cpu.branchPred.condIncorrect            136651                       # Number of conditional branches incorrect
system.cpu.branchPred.BTBLookups              8890306                       # Number of BTB lookups
system.cpu.branchPred.BTBHits                 8747308                       # Number of BTB hits
system.cpu.branchPred.BTBCorrect                    0                       # Number of correct BTB predictions (this stat may not work properly.
system.cpu.branchPred.BTBHitPct             98.391529                       # BTB Hit Percentage
system.cpu.branchPred.usedRAS                 2260600                       # Number of times the RAS was used to get a target.
system.cpu.branchPred.RASInCorrect              47005                       # Number of incorrect RAS predictions.
system.cpu.branchPred.indirectLookups           53569                       # Number of indirect predictor lookups.
system.cpu.branchPred.indirectHits              33228                       # Number of indirect target hits.
system.cpu.branchPred.indirectMisses            20341                       # Number of indirect misses.
system.cpu.branchPredindirectMispredicted          867                       # Number of mispredicted indirect branches.
system.cpu_voltage_domain.voltage                   1                       # Voltage in Volts
system.cpu_clk_domain.clock                       833                       # Clock period in ticks
system.cpu.dstage2_mmu.stage2_tlb.walker.pwrStateResidencyTicks::UNDEFINED  73996041406                       # Cumulative time (in ticks) in various power states
system.cpu.dstage2_mmu.stage2_tlb.walker.walks            0                       # Table walker walks requested
system.cpu.dstage2_mmu.stage2_tlb.walker.walkRequestOrigin_Requested::Data            0                       # Table walker requests started/completed, data/inst
system.cpu.dstage2_mmu.stage2_tlb.walker.walkRequestOrigin_Requested::Inst            0                       # Table walker requests started/completed, data/inst
system.cpu.dstage2_mmu.stage2_tlb.walker.walkRequestOrigin_Requested::total            0                       # Table walker requests started/completed, data/inst
system.cpu.dstage2_mmu.stage2_tlb.walker.walkRequestOrigin_Completed::Data            0                       # Table walker requests started/completed, data/inst
system.cpu.dstage2_mmu.stage2_tlb.walker.walkRequestOrigin_Completed::Inst            0                       # Table walker requests started/completed, data/inst
system.cpu.dstage2_mmu.stage2_tlb.walker.walkRequestOrigin_Completed::total            0                       # Table walker requests started/completed, data/inst
system.cpu.dstage2_mmu.stage2_tlb.walker.walkRequestOrigin::total            0                       # Table walker requests started/completed, data/inst
system.cpu.dstage2_mmu.stage2_tlb.inst_hits            0                       # ITB inst hits
system.cpu.dstage2_mmu.stage2_tlb.inst_misses            0                       # ITB inst misses
system.cpu.dstage2_mmu.stage2_tlb.read_hits            0                       # DTB read hits
system.cpu.dstage2_mmu.stage2_tlb.read_misses            0                       # DTB read misses
system.cpu.dstage2_mmu.stage2_tlb.write_hits            0                       # DTB write hits
system.cpu.dstage2_mmu.stage2_tlb.write_misses            0                       # DTB write misses
system.cpu.dstage2_mmu.stage2_tlb.flush_tlb            0                       # Number of times complete TLB was flushed
system.cpu.dstage2_mmu.stage2_tlb.flush_tlb_mva            0                       # Number of times TLB was flushed by MVA
system.cpu.dstage2_mmu.stage2_tlb.flush_tlb_mva_asid            0                       # Number of times TLB was flushed by MVA & ASID
system.cpu.dstage2_mmu.stage2_tlb.flush_tlb_asid            0                       # Number of times TLB was flushed by ASID
system.cpu.dstage2_mmu.stage2_tlb.flush_entries            0                       # Number of entries that have been flushed from TLB
system.cpu.dstage2_mmu.stage2_tlb.align_faults            0                       # Number of TLB faults due to alignment restrictions
system.cpu.dstage2_mmu.stage2_tlb.prefetch_faults            0                       # Number of TLB faults due to prefetch
system.cpu.dstage2_mmu.stage2_tlb.domain_faults            0                       # Number of TLB faults due to domain restrictions
system.cpu.dstage2_mmu.stage2_tlb.perms_faults            0                       # Number of TLB faults due to permissions restrictions
system.cpu.dstage2_mmu.stage2_tlb.read_accesses            0                       # DTB read accesses
system.cpu.dstage2_mmu.stage2_tlb.write_accesses            0                       # DTB write accesses
system.cpu.dstage2_mmu.stage2_tlb.inst_accesses            0                       # ITB inst accesses
system.cpu.dstage2_mmu.stage2_tlb.hits              0                       # DTB hits
system.cpu.dstage2_mmu.stage2_tlb.misses            0                       # DTB misses
system.cpu.dstage2_mmu.stage2_tlb.accesses            0                       # DTB accesses
system.cpu.dtb.walker.pwrStateResidencyTicks::UNDEFINED  73996041406                       # Cumulative time (in ticks) in various power states
system.cpu.dtb.walker.walks                         0                       # Table walker walks requested
system.cpu.dtb.walker.walkRequestOrigin_Requested::Data            0                       # Table walker requests started/completed, data/inst
system.cpu.dtb.walker.walkRequestOrigin_Requested::Inst            0                       # Table walker requests started/completed, data/inst
system.cpu.dtb.walker.walkRequestOrigin_Requested::total            0                       # Table walker requests started/completed, data/inst
system.cpu.dtb.walker.walkRequestOrigin_Completed::Data            0                       # Table walker requests started/completed, data/inst
system.cpu.dtb.walker.walkRequestOrigin_Completed::Inst            0                       # Table walker requests started/completed, data/inst
system.cpu.dtb.walker.walkRequestOrigin_Completed::total            0                       # Table walker requests started/completed, data/inst
system.cpu.dtb.walker.walkRequestOrigin::total            0                       # Table walker requests started/completed, data/inst
system.cpu.dtb.inst_hits                            0                       # ITB inst hits
system.cpu.dtb.inst_misses                          0                       # ITB inst misses
system.cpu.dtb.read_hits                            0                       # DTB read hits
system.cpu.dtb.read_misses                          0                       # DTB read misses
system.cpu.dtb.write_hits                           0                       # DTB write hits
system.cpu.dtb.write_misses                         0                       # DTB write misses
system.cpu.dtb.flush_tlb                            0                       # Number of times complete TLB was flushed
system.cpu.dtb.flush_tlb_mva                        0                       # Number of times TLB was flushed by MVA
system.cpu.dtb.flush_tlb_mva_asid                   0                       # Number of times TLB was flushed by MVA & ASID
system.cpu.dtb.flush_tlb_asid                       0                       # Number of times TLB was flushed by ASID
system.cpu.dtb.flush_entries                        0                       # Number of entries that have been flushed from TLB
system.cpu.dtb.align_faults                         0                       # Number of TLB faults due to alignment restrictions
system.cpu.dtb.prefetch_faults                      0                       # Number of TLB faults due to prefetch
system.cpu.dtb.domain_faults                        0                       # Number of TLB faults due to domain restrictions
system.cpu.dtb.perms_faults                         0                       # Number of TLB faults due to permissions restrictions
system.cpu.dtb.read_accesses                        0                       # DTB read accesses
system.cpu.dtb.write_accesses                       0                       # DTB write accesses
system.cpu.dtb.inst_accesses                        0                       # ITB inst accesses
system.cpu.dtb.hits                                 0                       # DTB hits
system.cpu.dtb.misses                               0                       # DTB misses
system.cpu.dtb.accesses                             0                       # DTB accesses
system.cpu.istage2_mmu.stage2_tlb.walker.pwrStateResidencyTicks::UNDEFINED  73996041406                       # Cumulative time (in ticks) in various power states
system.cpu.istage2_mmu.stage2_tlb.walker.walks            0                       # Table walker walks requested
system.cpu.istage2_mmu.stage2_tlb.walker.walkRequestOrigin_Requested::Data            0                       # Table walker requests started/completed, data/inst
system.cpu.istage2_mmu.stage2_tlb.walker.walkRequestOrigin_Requested::Inst            0                       # Table walker requests started/completed, data/inst
system.cpu.istage2_mmu.stage2_tlb.walker.walkRequestOrigin_Requested::total            0                       # Table walker requests started/completed, data/inst
system.cpu.istage2_mmu.stage2_tlb.walker.walkRequestOrigin_Completed::Data            0                       # Table walker requests started/completed, data/inst
system.cpu.istage2_mmu.stage2_tlb.walker.walkRequestOrigin_Completed::Inst            0                       # Table walker requests started/completed, data/inst
system.cpu.istage2_mmu.stage2_tlb.walker.walkRequestOrigin_Completed::total            0                       # Table walker requests started/completed, data/inst
system.cpu.istage2_mmu.stage2_tlb.walker.walkRequestOrigin::total            0                       # Table walker requests started/completed, data/inst
system.cpu.istage2_mmu.stage2_tlb.inst_hits            0                       # ITB inst hits
system.cpu.istage2_mmu.stage2_tlb.inst_misses            0                       # ITB inst misses
system.cpu.istage2_mmu.stage2_tlb.read_hits            0                       # DTB read hits
system.cpu.istage2_mmu.stage2_tlb.read_misses            0                       # DTB read misses
system.cpu.istage2_mmu.stage2_tlb.write_hits            0                       # DTB write hits
system.cpu.istage2_mmu.stage2_tlb.write_misses            0                       # DTB write misses
system.cpu.istage2_mmu.stage2_tlb.flush_tlb            0                       # Number of times complete TLB was flushed
system.cpu.istage2_mmu.stage2_tlb.flush_tlb_mva            0                       # Number of times TLB was flushed by MVA
system.cpu.istage2_mmu.stage2_tlb.flush_tlb_mva_asid            0                       # Number of times TLB was flushed by MVA & ASID
system.cpu.istage2_mmu.stage2_tlb.flush_tlb_asid            0                       # Number of times TLB was flushed by ASID
system.cpu.istage2_mmu.stage2_tlb.flush_entries            0                       # Number of entries that have been flushed from TLB
system.cpu.istage2_mmu.stage2_tlb.align_faults            0                       # Number of TLB faults due to alignment restrictions
system.cpu.istage2_mmu.stage2_tlb.prefetch_faults            0                       # Number of TLB faults due to prefetch
system.cpu.istage2_mmu.stage2_tlb.domain_faults            0                       # Number of TLB faults due to domain restrictions
system.cpu.istage2_mmu.stage2_tlb.perms_faults            0                       # Number of TLB faults due to permissions restrictions
system.cpu.istage2_mmu.stage2_tlb.read_accesses            0                       # DTB read accesses
system.cpu.istage2_mmu.stage2_tlb.write_accesses            0                       # DTB write accesses
system.cpu.istage2_mmu.stage2_tlb.inst_accesses            0                       # ITB inst accesses
system.cpu.istage2_mmu.stage2_tlb.hits              0                       # DTB hits
system.cpu.istage2_mmu.stage2_tlb.misses            0                       # DTB misses
system.cpu.istage2_mmu.stage2_tlb.accesses            0                       # DTB accesses
system.cpu.itb.walker.pwrStateResidencyTicks::UNDEFINED  73996041406                       # Cumulative time (in ticks) in various power states
system.cpu.itb.walker.walks                         0                       # Table walker walks requested
system.cpu.itb.walker.walkRequestOrigin_Requested::Data            0                       # Table walker requests started/completed, data/inst
system.cpu.itb.walker.walkRequestOrigin_Requested::Inst            0                       # Table walker requests started/completed, data/inst
system.cpu.itb.walker.walkRequestOrigin_Requested::total            0                       # Table walker requests started/completed, data/inst
system.cpu.itb.walker.walkRequestOrigin_Completed::Data            0                       # Table walker requests started/completed, data/inst
system.cpu.itb.walker.walkRequestOrigin_Completed::Inst            0                       # Table walker requests started/completed, data/inst
system.cpu.itb.walker.walkRequestOrigin_Completed::total            0                       # Table walker requests started/completed, data/inst
system.cpu.itb.walker.walkRequestOrigin::total            0                       # Table walker requests started/completed, data/inst
system.cpu.itb.inst_hits                            0                       # ITB inst hits
system.cpu.itb.inst_misses                          0                       # ITB inst misses
system.cpu.itb.read_hits                            0                       # DTB read hits
system.cpu.itb.read_misses                          0                       # DTB read misses
system.cpu.itb.write_hits                           0                       # DTB write hits
system.cpu.itb.write_misses                         0                       # DTB write misses
system.cpu.itb.flush_tlb                            0                       # Number of times complete TLB was flushed
system.cpu.itb.flush_tlb_mva                        0                       # Number of times TLB was flushed by MVA
system.cpu.itb.flush_tlb_mva_asid                   0                       # Number of times TLB was flushed by MVA & ASID
system.cpu.itb.flush_tlb_asid                       0                       # Number of times TLB was flushed by ASID
system.cpu.itb.flush_entries                        0                       # Number of entries that have been flushed from TLB
system.cpu.itb.align_faults                         0                       # Number of TLB faults due to alignment restrictions
system.cpu.itb.prefetch_faults                      0                       # Number of TLB faults due to prefetch
system.cpu.itb.domain_faults                        0                       # Number of TLB faults due to domain restrictions
system.cpu.itb.perms_faults                         0                       # Number of TLB faults due to permissions restrictions
system.cpu.itb.read_accesses                        0                       # DTB read accesses
system.cpu.itb.write_accesses                       0                       # DTB write accesses
system.cpu.itb.inst_accesses                        0                       # ITB inst accesses
system.cpu.itb.hits                                 0                       # DTB hits
system.cpu.itb.misses                               0                       # DTB misses
system.cpu.itb.accesses                             0                       # DTB accesses
system.cpu.workload.numSyscalls                  6671                       # Number of system calls
system.cpu.pwrStateResidencyTicks::ON     73996041406                       # Cumulative time (in ticks) in various power states
system.cpu.numCycles                         88830783                       # number of cpu cycles simulated
system.cpu.numWorkItemsStarted                      0                       # number of work items this cpu started
system.cpu.numWorkItemsCompleted                    0                       # number of work items this cpu completed
system.cpu.fetch.icacheStallCycles             237447                       # Number of cycles fetch is stalled on an Icache miss
system.cpu.fetch.Insts                       83792339                       # Number of instructions fetch has processed
system.cpu.fetch.Branches                    15598636                       # Number of branches that fetch encountered
system.cpu.fetch.predictedBranches           11041136                       # Number of branches that fetch has predicted taken
system.cpu.fetch.Cycles                      88360999                       # Number of cycles fetch has run and was not squashing or blocked
system.cpu.fetch.SquashCycles                  287152                       # Number of cycles fetch has spent squashing
system.cpu.fetch.MiscStallCycles                  215                       # Number of cycles fetch has spent waiting on interrupts, or bad addresses, or out of MSHRs
system.cpu.fetch.PendingTrapStallCycles          1604                       # Number of stall cycles due to pending traps
system.cpu.fetch.IcacheWaitRetryStallCycles          605                       # Number of stall cycles due to full MSHR
system.cpu.fetch.CacheLines                  83927935                       # Number of cache lines fetched
system.cpu.fetch.IcacheSquashes                  2252                       # Number of outstanding Icache misses that were squashed
system.cpu.fetch.rateDist::samples           88744446                       # Number of instructions fetched each cycle (Total)
system.cpu.fetch.rateDist::mean              1.120823                       # Number of instructions fetched each cycle (Total)
system.cpu.fetch.rateDist::stdev             0.339802                       # Number of instructions fetched each cycle (Total)
system.cpu.fetch.rateDist::underflows               0      0.00%      0.00% # Number of instructions fetched each cycle (Total)
system.cpu.fetch.rateDist::0                   410021      0.46%      0.46% # Number of instructions fetched each cycle (Total)
system.cpu.fetch.rateDist::1                 77202052     86.99%     87.46% # Number of instructions fetched each cycle (Total)
system.cpu.fetch.rateDist::2                 11132373     12.54%    100.00% # Number of instructions fetched each cycle (Total)
system.cpu.fetch.rateDist::overflows                0      0.00%    100.00% # Number of instructions fetched each cycle (Total)
system.cpu.fetch.rateDist::min_value                0                       # Number of instructions fetched each cycle (Total)
system.cpu.fetch.rateDist::max_value                2                       # Number of instructions fetched each cycle (Total)
system.cpu.fetch.rateDist::total             88744446                       # Number of instructions fetched each cycle (Total)
system.cpu.fetch.branchRate                  0.175599                       # Number of branch fetches per cycle
system.cpu.fetch.rate                        0.943280                       # Number of inst fetches per cycle
system.cpu.decode.IdleCycles                  6857270                       # Number of cycles decode is idle
system.cpu.decode.BlockedCycles              13844000                       # Number of cycles decode is blocked
system.cpu.decode.RunCycles                  61440541                       # Number of cycles decode is running
system.cpu.decode.UnblockCycles               6461424                       # Number of cycles decode is unblocking
system.cpu.decode.SquashCycles                 141211                       # Number of cycles decode is squashing
system.cpu.decode.BranchResolved              8640889                       # Number of times decode resolved a branch
system.cpu.decode.BranchMispred                  2509                       # Number of times decode detected a branch misprediction
system.cpu.decode.DecodedInsts               97837497                       # Number of instructions handled by decode
system.cpu.decode.SquashedInsts                337120                       # Number of squashed instructions handled by decode
system.cpu.rename.SquashCycles                 141211                       # Number of cycles rename is squashing
system.cpu.rename.IdleCycles                 11545480                       # Number of cycles rename is idle
system.cpu.rename.BlockCycles                  181332                       # Number of cycles rename is blocking
system.cpu.rename.serializeStallCycles         696913                       # count of cycles rename stalled for serializing inst
system.cpu.rename.RunCycles                  63209459                       # Number of cycles rename is running
system.cpu.rename.UnblockCycles              12970051                       # Number of cycles rename is unblocking
system.cpu.rename.RenamedInsts               97376930                       # Number of instructions processed by rename
system.cpu.rename.SquashedInsts                216972                       # Number of squashed instructions processed by rename
system.cpu.rename.ROBFullEvents                  2669                       # Number of times rename has blocked due to ROB full
system.cpu.rename.IQFullEvents                    334                       # Number of times rename has blocked due to IQ full
system.cpu.rename.LQFullEvents               12607116                       # Number of times rename has blocked due to LQ full
system.cpu.rename.SQFullEvents                 167036                       # Number of times rename has blocked due to SQ full
system.cpu.rename.RenamedOperands           100399852                       # Number of destination operands rename has renamed
system.cpu.rename.RenameLookups             445393907                       # Number of register rename lookups that rename has made
system.cpu.rename.int_rename_lookups        112306244                       # Number of integer rename lookups
system.cpu.rename.fp_rename_lookups                16                       # Number of floating rename lookups
system.cpu.rename.CommittedMaps              99763759                       # Number of HB maps that are committed
system.cpu.rename.UndoneMaps                   636092                       # Number of HB maps that are undone due to squashing
system.cpu.rename.serializingInsts              36876                       # count of serializing insts renamed
system.cpu.rename.tempSerializingInsts          36870                       # count of temporary serializing insts renamed
system.cpu.rename.skidInsts                   6709208                       # count of insts added to the skid buffer
system.cpu.memDep0.insertedLoads             19147268                       # Number of loads inserted to the mem dependence unit.
system.cpu.memDep0.insertedStores            15128629                       # Number of stores inserted to the mem dependence unit.
system.cpu.memDep0.conflictingLoads              8990                       # Number of conflicting loads.
system.cpu.memDep0.conflictingStores              242                       # Number of conflicting stores.
system.cpu.iq.iqInstsAdded                   97068603                       # Number of instructions added to the IQ (excludes non-spec)
system.cpu.iq.iqNonSpecInstsAdded               66896                       # Number of non-speculative instructions added to the IQ
system.cpu.iq.iqInstsIssued                  97038838                       # Number of instructions issued
system.cpu.iq.iqSquashedInstsIssued             75282                       # Number of squashed instructions issued
system.cpu.iq.iqSquashedInstsExamined          441741                       # Number of squashed instructions iterated over during squash; mainly for profiling
system.cpu.iq.iqSquashedOperandsExamined       722948                       # Number of squashed operands that are examined and possibly removed from graph
system.cpu.iq.iqSquashedNonSpecRemoved            175                       # Number of squashed non-spec instructions that were removed
system.cpu.iq.issued_per_cycle::samples      88744446                       # Number of insts issued each cycle
system.cpu.iq.issued_per_cycle::mean         1.093464                       # Number of insts issued each cycle
system.cpu.iq.issued_per_cycle::stdev        0.815288                       # Number of insts issued each cycle
system.cpu.iq.issued_per_cycle::underflows            0      0.00%      0.00% # Number of insts issued each cycle
system.cpu.iq.issued_per_cycle::0            25734371     29.00%     29.00% # Number of insts issued each cycle
system.cpu.iq.issued_per_cycle::1            28981312     32.66%     61.66% # Number of insts issued each cycle
system.cpu.iq.issued_per_cycle::2            34028763     38.34%    100.00% # Number of insts issued each cycle
system.cpu.iq.issued_per_cycle::overflows            0      0.00%    100.00% # Number of insts issued each cycle
system.cpu.iq.issued_per_cycle::min_value            0                       # Number of insts issued each cycle
system.cpu.iq.issued_per_cycle::max_value            2                       # Number of insts issued each cycle
system.cpu.iq.issued_per_cycle::total        88744446                       # Number of insts issued each cycle
system.cpu.iq.fu_full::No_OpClass                   0      0.00%      0.00% # attempts to use FU when none available
system.cpu.iq.fu_full::IntAlu                       0      0.00%      0.00% # attempts to use FU when none available
system.cpu.iq.fu_full::IntMult                      0      0.00%      0.00% # attempts to use FU when none available
system.cpu.iq.fu_full::IntDiv                       0      0.00%      0.00% # attempts to use FU when none available
system.cpu.iq.fu_full::FloatAdd                     0      0.00%      0.00% # attempts to use FU when none available
system.cpu.iq.fu_full::FloatCmp                     0      0.00%      0.00% # attempts to use FU when none available
system.cpu.iq.fu_full::FloatCvt                     0      0.00%      0.00% # attempts to use FU when none available
system.cpu.iq.fu_full::FloatMult                    0      0.00%      0.00% # attempts to use FU when none available
system.cpu.iq.fu_full::FloatMultAcc                 0      0.00%      0.00% # attempts to use FU when none available
system.cpu.iq.fu_full::FloatDiv                     0      0.00%      0.00% # attempts to use FU when none available
system.cpu.iq.fu_full::FloatMisc                    0      0.00%      0.00% # attempts to use FU when none available
system.cpu.iq.fu_full::FloatSqrt                    0      0.00%      0.00% # attempts to use FU when none available
system.cpu.iq.fu_full::SimdAdd                      0      0.00%      0.00% # attempts to use FU when none available
system.cpu.iq.fu_full::SimdAddAcc                   0      0.00%      0.00% # attempts to use FU when none available
system.cpu.iq.fu_full::SimdAlu                      0      0.00%      0.00% # attempts to use FU when none available
system.cpu.iq.fu_full::SimdCmp                      0      0.00%      0.00% # attempts to use FU when none available
system.cpu.iq.fu_full::SimdCvt                      0      0.00%      0.00% # attempts to use FU when none available
system.cpu.iq.fu_full::SimdMisc                     0      0.00%      0.00% # attempts to use FU when none available
system.cpu.iq.fu_full::SimdMult                     0      0.00%      0.00% # attempts to use FU when none available
system.cpu.iq.fu_full::SimdMultAcc                  0      0.00%      0.00% # attempts to use FU when none available
system.cpu.iq.fu_full::SimdShift                    0      0.00%      0.00% # attempts to use FU when none available
system.cpu.iq.fu_full::SimdShiftAcc                 0      0.00%      0.00% # attempts to use FU when none available
system.cpu.iq.fu_full::SimdSqrt                     0      0.00%      0.00% # attempts to use FU when none available
system.cpu.iq.fu_full::SimdFloatAdd                 0      0.00%      0.00% # attempts to use FU when none available
system.cpu.iq.fu_full::SimdFloatAlu                 0      0.00%      0.00% # attempts to use FU when none available
system.cpu.iq.fu_full::SimdFloatCmp                 0      0.00%      0.00% # attempts to use FU when none available
system.cpu.iq.fu_full::SimdFloatCvt                 0      0.00%      0.00% # attempts to use FU when none available
system.cpu.iq.fu_full::SimdFloatDiv                 0      0.00%      0.00% # attempts to use FU when none available
system.cpu.iq.fu_full::SimdFloatMisc                0      0.00%      0.00% # attempts to use FU when none available
system.cpu.iq.fu_full::SimdFloatMult                0      0.00%      0.00% # attempts to use FU when none available
system.cpu.iq.fu_full::SimdFloatMultAcc             0      0.00%      0.00% # attempts to use FU when none available
system.cpu.iq.fu_full::SimdFloatSqrt                0      0.00%      0.00% # attempts to use FU when none available
system.cpu.iq.fu_full::MemRead                2150293     90.19%     90.19% # attempts to use FU when none available
system.cpu.iq.fu_full::MemWrite                233867      9.81%    100.00% # attempts to use FU when none available
system.cpu.iq.fu_full::FloatMemRead                 0      0.00%    100.00% # attempts to use FU when none available
system.cpu.iq.fu_full::FloatMemWrite                4      0.00%    100.00% # attempts to use FU when none available
system.cpu.iq.fu_full::IprAccess                    0      0.00%    100.00% # attempts to use FU when none available
system.cpu.iq.fu_full::InstPrefetch                 0      0.00%    100.00% # attempts to use FU when none available
system.cpu.iq.FU_type_0::No_OpClass                84      0.00%      0.00% # Type of FU issued
system.cpu.iq.FU_type_0::IntAlu              62622746     64.53%     64.53% # Type of FU issued
system.cpu.iq.FU_type_0::IntMult               219851      0.23%     64.76% # Type of FU issued
system.cpu.iq.FU_type_0::IntDiv                     0      0.00%     64.76% # Type of FU issued
system.cpu.iq.FU_type_0::FloatAdd                   0      0.00%     64.76% # Type of FU issued
system.cpu.iq.FU_type_0::FloatCmp                   0      0.00%     64.76% # Type of FU issued
system.cpu.iq.FU_type_0::FloatCvt                   0      0.00%     64.76% # Type of FU issued
system.cpu.iq.FU_type_0::FloatMult                  0      0.00%     64.76% # Type of FU issued
system.cpu.iq.FU_type_0::FloatMultAcc               0      0.00%     64.76% # Type of FU issued
system.cpu.iq.FU_type_0::FloatDiv                   0      0.00%     64.76% # Type of FU issued
system.cpu.iq.FU_type_0::FloatMisc                  0      0.00%     64.76% # Type of FU issued
system.cpu.iq.FU_type_0::FloatSqrt                  0      0.00%     64.76% # Type of FU issued
system.cpu.iq.FU_type_0::SimdAdd                    0      0.00%     64.76% # Type of FU issued
system.cpu.iq.FU_type_0::SimdAddAcc                 0      0.00%     64.76% # Type of FU issued
system.cpu.iq.FU_type_0::SimdAlu                    0      0.00%     64.76% # Type of FU issued
system.cpu.iq.FU_type_0::SimdCmp                    0      0.00%     64.76% # Type of FU issued
system.cpu.iq.FU_type_0::SimdCvt                    0      0.00%     64.76% # Type of FU issued
system.cpu.iq.FU_type_0::SimdMisc                   0      0.00%     64.76% # Type of FU issued
system.cpu.iq.FU_type_0::SimdMult                   0      0.00%     64.76% # Type of FU issued
system.cpu.iq.FU_type_0::SimdMultAcc                0      0.00%     64.76% # Type of FU issued
system.cpu.iq.FU_type_0::SimdShift                  0      0.00%     64.76% # Type of FU issued
system.cpu.iq.FU_type_0::SimdShiftAcc               0      0.00%     64.76% # Type of FU issued
system.cpu.iq.FU_type_0::SimdSqrt                   0      0.00%     64.76% # Type of FU issued
system.cpu.iq.FU_type_0::SimdFloatAdd               0      0.00%     64.76% # Type of FU issued
system.cpu.iq.FU_type_0::SimdFloatAlu               0      0.00%     64.76% # Type of FU issued
system.cpu.iq.FU_type_0::SimdFloatCmp               0      0.00%     64.76% # Type of FU issued
system.cpu.iq.FU_type_0::SimdFloatCvt               0      0.00%     64.76% # Type of FU issued
system.cpu.iq.FU_type_0::SimdFloatDiv               0      0.00%     64.76% # Type of FU issued
system.cpu.iq.FU_type_0::SimdFloatMisc              0      0.00%     64.76% # Type of FU issued
system.cpu.iq.FU_type_0::SimdFloatMult              0      0.00%     64.76% # Type of FU issued
system.cpu.iq.FU_type_0::SimdFloatMultAcc            0      0.00%     64.76% # Type of FU issued
system.cpu.iq.FU_type_0::SimdFloatSqrt              0      0.00%     64.76% # Type of FU issued
system.cpu.iq.FU_type_0::MemRead             19142908     19.73%     84.49% # Type of FU issued
system.cpu.iq.FU_type_0::MemWrite            15053233     15.51%    100.00% # Type of FU issued
system.cpu.iq.FU_type_0::FloatMemRead               0      0.00%    100.00% # Type of FU issued
system.cpu.iq.FU_type_0::FloatMemWrite             16      0.00%    100.00% # Type of FU issued
system.cpu.iq.FU_type_0::IprAccess                  0      0.00%    100.00% # Type of FU issued
system.cpu.iq.FU_type_0::InstPrefetch               0      0.00%    100.00% # Type of FU issued
system.cpu.iq.FU_type_0::total               97038838                       # Type of FU issued
system.cpu.iq.rate                           1.092401                       # Inst issue rate
system.cpu.iq.fu_busy_cnt                     2384164                       # FU busy when requested
system.cpu.iq.fu_busy_rate                   0.024569                       # FU busy rate (busy events/executed inst)
system.cpu.iq.int_inst_queue_reads          285281532                       # Number of integer instruction queue reads
system.cpu.iq.int_inst_queue_writes          97577431                       # Number of integer instruction queue writes
system.cpu.iq.int_inst_queue_wakeup_accesses     96842574                       # Number of integer instruction queue wakeup accesses
system.cpu.iq.fp_inst_queue_reads                  36                       # Number of floating instruction queue reads
system.cpu.iq.fp_inst_queue_writes                 16                       # Number of floating instruction queue writes
system.cpu.iq.fp_inst_queue_wakeup_accesses           16                       # Number of floating instruction queue wakeup accesses
system.cpu.iq.vec_inst_queue_reads                  0                       # Number of vector instruction queue reads
system.cpu.iq.vec_inst_queue_writes                 0                       # Number of vector instruction queue writes
system.cpu.iq.vec_inst_queue_wakeup_accesses            0                       # Number of vector instruction queue wakeup accesses
system.cpu.iq.int_alu_accesses               99422898                       # Number of integer alu accesses
system.cpu.iq.fp_alu_accesses                      20                       # Number of floating point alu accesses
system.cpu.iq.vec_alu_accesses                      0                       # Number of vector alu accesses
system.cpu.iew.lsq.thread0.forwLoads             7908                       # Number of loads that had data forwarded from stores
system.cpu.iew.lsq.thread0.invAddrLoads             0                       # Number of loads ignored due to an invalid address
system.cpu.iew.lsq.thread0.squashedLoads        28032                       # Number of loads squashed
system.cpu.iew.lsq.thread0.ignoredResponses           95                       # Number of memory responses ignored because the instruction is squashed
system.cpu.iew.lsq.thread0.memOrderViolation          207                       # Number of memory ordering violations
system.cpu.iew.lsq.thread0.squashedStores        84834                       # Number of stores squashed
system.cpu.iew.lsq.thread0.invAddrSwpfs             0                       # Number of software prefetches ignored due to an invalid address
system.cpu.iew.lsq.thread0.blockedLoads             0                       # Number of blocked loads due to partial load-store forwarding
system.cpu.iew.lsq.thread0.rescheduledLoads           59                       # Number of loads that were rescheduled
system.cpu.iew.lsq.thread0.cacheBlocked             0                       # Number of times an access to memory failed due to the cache being blocked
system.cpu.iew.iewIdleCycles                        0                       # Number of cycles IEW is idle
system.cpu.iew.iewSquashCycles                 141211                       # Number of cycles IEW is squashing
system.cpu.iew.iewBlockCycles                   30890                       # Number of cycles IEW is blocking
system.cpu.iew.iewUnblockCycles                144068                       # Number of cycles IEW is unblocking
system.cpu.iew.iewDispatchedInsts            97135499                       # Number of instructions dispatched to IQ
system.cpu.iew.iewDispSquashedInsts                 0                       # Number of squashed instructions skipped by dispatch
system.cpu.iew.iewDispLoadInsts              19147268                       # Number of dispatched load instructions
system.cpu.iew.iewDispStoreInsts             15128629                       # Number of dispatched store instructions
system.cpu.iew.iewDispNonSpecInsts              36869                       # Number of dispatched non-speculative instructions
system.cpu.iew.iewIQFullEvents                      1                       # Number of times the IQ has become full, causing a stall
system.cpu.iew.iewLSQFullEvents                136057                       # Number of times the LSQ has become full, causing a stall
system.cpu.iew.memOrderViolationEvents            207                       # Number of memory order violations
system.cpu.iew.predictedTakenIncorrect         129605                       # Number of branches that were predicted taken incorrectly
system.cpu.iew.predictedNotTakenIncorrect         5185                       # Number of branches that were predicted not taken incorrectly
system.cpu.iew.branchMispredicts               134790                       # Number of branch mispredicts detected at execute
system.cpu.iew.iewExecutedInsts              96853406                       # Number of executed instructions
system.cpu.iew.iewExecLoadInsts              19125004                       # Number of load instructions executed
system.cpu.iew.iewExecSquashedInsts            185432                       # Number of squashed instructions skipped in execute
system.cpu.iew.exec_swp                             0                       # number of swp insts executed
system.cpu.iew.exec_nop                             0                       # number of nop insts executed
system.cpu.iew.exec_refs                     34169959                       # number of memory reference insts executed
system.cpu.iew.exec_branches                 15142573                       # Number of branches executed
system.cpu.iew.exec_stores                   15044955                       # Number of stores executed
system.cpu.iew.exec_rate                     1.090314                       # Inst execution rate
system.cpu.iew.wb_sent                       96851420                       # cumulative count of insts sent to commit
system.cpu.iew.wb_count                      96842590                       # cumulative count of insts written-back
system.cpu.iew.wb_producers                  42593748                       # num instructions producing a value
system.cpu.iew.wb_consumers                  60508967                       # num instructions consuming a value
system.cpu.iew.wb_rate                       1.090192                       # insts written-back per cycle
system.cpu.iew.wb_fanout                     0.703925                       # average fanout of values written-back
system.cpu.commit.commitSquashedInsts          272161                       # The number of squashed insts skipped by commit
system.cpu.commit.commitNonSpecStalls           66721                       # The number of times commit has been forced to stall to communicate backwards
system.cpu.commit.branchMispredicts            134333                       # The number of times a branch was mispredicted
system.cpu.commit.committed_per_cycle::samples     88572642                       # Number of insts commited each cycle
system.cpu.commit.committed_per_cycle::mean     1.091689                       # Number of insts commited each cycle
system.cpu.commit.committed_per_cycle::stdev     0.877210                       # Number of insts commited each cycle
system.cpu.commit.committed_per_cycle::underflows            0      0.00%      0.00% # Number of insts commited each cycle
system.cpu.commit.committed_per_cycle::0     30389938     34.31%     34.31% # Number of insts commited each cycle
system.cpu.commit.committed_per_cycle::1     19671651     22.21%     56.52% # Number of insts commited each cycle
system.cpu.commit.committed_per_cycle::2     38511053     43.48%    100.00% # Number of insts commited each cycle
system.cpu.commit.committed_per_cycle::overflows            0      0.00%    100.00% # Number of insts commited each cycle
system.cpu.commit.committed_per_cycle::min_value            0                       # Number of insts commited each cycle
system.cpu.commit.committed_per_cycle::max_value            2                       # Number of insts commited each cycle
system.cpu.commit.committed_per_cycle::total     88572642                       # Number of insts commited each cycle
system.cpu.commit.committedInsts             81551165                       # Number of instructions committed
system.cpu.commit.committedOps               96693757                       # Number of ops (including micro ops) committed
system.cpu.commit.swp_count                         0                       # Number of s/w prefetches committed
system.cpu.commit.refs                       34163031                       # Number of memory references committed
system.cpu.commit.loads                      19119236                       # Number of loads committed
system.cpu.commit.membars                       30027                       # Number of memory barriers committed
system.cpu.commit.branches                   15122539                       # Number of branches committed
system.cpu.commit.vec_insts                         0                       # Number of committed Vector instructions.
system.cpu.commit.fp_insts                         16                       # Number of committed floating point instructions.
system.cpu.commit.int_insts                  85858492                       # Number of committed integer instructions.
system.cpu.commit.function_calls              2127065                       # Number of function calls committed.
system.cpu.commit.op_class_0::No_OpClass            0      0.00%      0.00% # Class of committed instruction
system.cpu.commit.op_class_0::IntAlu         62317537     64.45%     64.45% # Class of committed instruction
system.cpu.commit.op_class_0::IntMult          213189      0.22%     64.67% # Class of committed instruction
system.cpu.commit.op_class_0::IntDiv                0      0.00%     64.67% # Class of committed instruction
system.cpu.commit.op_class_0::FloatAdd              0      0.00%     64.67% # Class of committed instruction
system.cpu.commit.op_class_0::FloatCmp              0      0.00%     64.67% # Class of committed instruction
system.cpu.commit.op_class_0::FloatCvt              0      0.00%     64.67% # Class of committed instruction
system.cpu.commit.op_class_0::FloatMult             0      0.00%     64.67% # Class of committed instruction
system.cpu.commit.op_class_0::FloatMultAcc            0      0.00%     64.67% # Class of committed instruction
system.cpu.commit.op_class_0::FloatDiv              0      0.00%     64.67% # Class of committed instruction
system.cpu.commit.op_class_0::FloatMisc             0      0.00%     64.67% # Class of committed instruction
system.cpu.commit.op_class_0::FloatSqrt             0      0.00%     64.67% # Class of committed instruction
system.cpu.commit.op_class_0::SimdAdd               0      0.00%     64.67% # Class of committed instruction
system.cpu.commit.op_class_0::SimdAddAcc            0      0.00%     64.67% # Class of committed instruction
system.cpu.commit.op_class_0::SimdAlu               0      0.00%     64.67% # Class of committed instruction
system.cpu.commit.op_class_0::SimdCmp               0      0.00%     64.67% # Class of committed instruction
system.cpu.commit.op_class_0::SimdCvt               0      0.00%     64.67% # Class of committed instruction
system.cpu.commit.op_class_0::SimdMisc              0      0.00%     64.67% # Class of committed instruction
system.cpu.commit.op_class_0::SimdMult              0      0.00%     64.67% # Class of committed instruction
system.cpu.commit.op_class_0::SimdMultAcc            0      0.00%     64.67% # Class of committed instruction
system.cpu.commit.op_class_0::SimdShift             0      0.00%     64.67% # Class of committed instruction
system.cpu.commit.op_class_0::SimdShiftAcc            0      0.00%     64.67% # Class of committed instruction
system.cpu.commit.op_class_0::SimdSqrt              0      0.00%     64.67% # Class of committed instruction
system.cpu.commit.op_class_0::SimdFloatAdd            0      0.00%     64.67% # Class of committed instruction
system.cpu.commit.op_class_0::SimdFloatAlu            0      0.00%     64.67% # Class of committed instruction
system.cpu.commit.op_class_0::SimdFloatCmp            0      0.00%     64.67% # Class of committed instruction
system.cpu.commit.op_class_0::SimdFloatCvt            0      0.00%     64.67% # Class of committed instruction
system.cpu.commit.op_class_0::SimdFloatDiv            0      0.00%     64.67% # Class of committed instruction
system.cpu.commit.op_class_0::SimdFloatMisc            0      0.00%     64.67% # Class of committed instruction
system.cpu.commit.op_class_0::SimdFloatMult            0      0.00%     64.67% # Class of committed instruction
system.cpu.commit.op_class_0::SimdFloatMultAcc            0      0.00%     64.67% # Class of committed instruction
system.cpu.commit.op_class_0::SimdFloatSqrt            0      0.00%     64.67% # Class of committed instruction
system.cpu.commit.op_class_0::MemRead        19119236     19.77%     84.44% # Class of committed instruction
system.cpu.commit.op_class_0::MemWrite       15043779     15.56%    100.00% # Class of committed instruction
system.cpu.commit.op_class_0::FloatMemRead            0      0.00%    100.00% # Class of committed instruction
system.cpu.commit.op_class_0::FloatMemWrite           16      0.00%    100.00% # Class of committed instruction
system.cpu.commit.op_class_0::IprAccess             0      0.00%    100.00% # Class of committed instruction
system.cpu.commit.op_class_0::InstPrefetch            0      0.00%    100.00% # Class of committed instruction
system.cpu.commit.op_class_0::total          96693757                       # Class of committed instruction
system.cpu.commit.bw_lim_events              38511053                       # number cycles where commit BW limit reached
system.cpu.rob.rob_reads                    146940797                       # The number of ROB reads
system.cpu.rob.rob_writes                   194103647                       # The number of ROB writes
system.cpu.timesIdled                             883                       # Number of times that the entire CPU went into an idle state and unscheduled itself
system.cpu.idleCycles                           86337                       # Total number of cycles that the CPU has spent unscheduled due to idling
system.cpu.committedInsts                    81551165                       # Number of Instructions Simulated
system.cpu.committedOps                      96693757                       # Number of Ops (including micro ops) Simulated
system.cpu.cpi                               1.089264                       # CPI: Cycles Per Instruction
system.cpu.cpi_total                         1.089264                       # CPI: Total CPI of All Threads
system.cpu.ipc                               0.918051                       # IPC: Instructions Per Cycle
system.cpu.ipc_total                         0.918051                       # IPC: Total IPC of All Threads
system.cpu.int_regfile_reads                111354346                       # number of integer regfile reads
system.cpu.int_regfile_writes                58275837                       # number of integer regfile writes
system.cpu.fp_regfile_reads                        16                       # number of floating regfile reads
system.cpu.cc_regfile_reads                 348018249                       # number of cc regfile reads
system.cpu.cc_regfile_writes                 39537778                       # number of cc regfile writes
system.cpu.misc_regfile_reads                34415180                       # number of misc regfile reads
system.cpu.misc_regfile_writes                 120093                       # number of misc regfile writes
system.cpu.dcache.tags.pwrStateResidencyTicks::UNDEFINED  73996041406                       # Cumulative time (in ticks) in various power states
system.cpu.dcache.tags.replacements                 9                       # number of replacements
system.cpu.dcache.tags.tagsinuse           460.460153                       # Cycle average of tags in use
system.cpu.dcache.tags.total_refs            34150652                       # Total number of references to valid blocks.
system.cpu.dcache.tags.sampled_refs               503                       # Sample count of references to valid blocks.
system.cpu.dcache.tags.avg_refs          67893.940358                       # Average number of references to valid blocks.
system.cpu.dcache.tags.warmup_cycle            199920                       # Cycle when the warmup percentage was hit.
system.cpu.dcache.tags.occ_blocks::cpu.data   460.460153                       # Average occupied blocks per requestor
system.cpu.dcache.tags.occ_percent::cpu.data     0.449668                       # Average percentage of cache occupancy
system.cpu.dcache.tags.occ_percent::total     0.449668                       # Average percentage of cache occupancy
system.cpu.dcache.tags.occ_task_id_blocks::1024          494                       # Occupied blocks per task id
system.cpu.dcache.tags.age_task_id_blocks_1024::0           29                       # Occupied blocks per task id
system.cpu.dcache.tags.age_task_id_blocks_1024::4          465                       # Occupied blocks per task id
system.cpu.dcache.tags.occ_task_id_percent::1024     0.482422                       # Percentage of cache occupancy per task id
system.cpu.dcache.tags.tag_accesses         136606899                       # Number of tag accesses
system.cpu.dcache.tags.data_accesses        136606899                       # Number of data accesses
system.cpu.dcache.pwrStateResidencyTicks::UNDEFINED  73996041406                       # Cumulative time (in ticks) in various power states
system.cpu.dcache.ReadReq_hits::cpu.data     19080219                       # number of ReadReq hits
system.cpu.dcache.ReadReq_hits::total        19080219                       # number of ReadReq hits
[...]
system.l2.ReadSharedReq_miss_rate::total     0.976048                       # miss rate for ReadSharedReq accesses
system.l2.demand_miss_rate::cpu.inst         0.179109                       # miss rate for demand accesses
system.l2.demand_miss_rate::cpu.data         0.906561                       # miss rate for demand accesses
system.l2.demand_miss_rate::total            0.232824                       # miss rate for demand accesses
system.l2.overall_miss_rate::cpu.inst        0.179109                       # miss rate for overall accesses
system.l2.overall_miss_rate::cpu.data        0.906561                       # miss rate for overall accesses
system.l2.overall_miss_rate::total           0.232824                       # miss rate for overall accesses
system.l2.ReadExReq_avg_miss_latency::cpu.data 120016.076923                       # average ReadExReq miss latency
system.l2.ReadExReq_avg_miss_latency::total 120016.076923                       # average ReadExReq miss latency
system.l2.ReadCleanReq_avg_miss_latency::cpu.inst 134853.116814                       # average ReadCleanReq miss latency
system.l2.ReadCleanReq_avg_miss_latency::total 134853.116814                       # average ReadCleanReq miss latency
system.l2.ReadSharedReq_avg_miss_latency::cpu.data 103297.110429                       # average ReadSharedReq miss latency
system.l2.ReadSharedReq_avg_miss_latency::total 103297.110429                       # average ReadSharedReq miss latency
system.l2.demand_avg_miss_latency::cpu.inst 134853.116814                       # average overall miss latency
system.l2.demand_avg_miss_latency::cpu.data 108063.482456                       # average overall miss latency
system.l2.demand_avg_miss_latency::total 127150.674653                       # average overall miss latency
system.l2.overall_avg_miss_latency::cpu.inst 134853.116814                       # average overall miss latency
system.l2.overall_avg_miss_latency::cpu.data 108063.482456                       # average overall miss latency
system.l2.overall_avg_miss_latency::total 127150.674653                       # average overall miss latency
system.l2.blocked_cycles::no_mshrs                  0                       # number of cycles access was blocked
system.l2.blocked_cycles::no_targets                0                       # number of cycles access was blocked
system.l2.blocked::no_mshrs                         0                       # number of cycles access was blocked
system.l2.blocked::no_targets                       0                       # number of cycles access was blocked
system.l2.avg_blocked_cycles::no_mshrs            nan                       # average number of cycles each access was blocked
system.l2.avg_blocked_cycles::no_targets          nan                       # average number of cycles each access was blocked
system.l2.ReadCleanReq_mshr_hits::cpu.inst           11                       # number of ReadCleanReq MSHR hits
system.l2.ReadCleanReq_mshr_hits::total            11                       # number of ReadCleanReq MSHR hits
system.l2.ReadSharedReq_mshr_hits::cpu.data           18                       # number of ReadSharedReq MSHR hits
system.l2.ReadSharedReq_mshr_hits::total           18                       # number of ReadSharedReq MSHR hits
system.l2.demand_mshr_hits::cpu.inst               11                       # number of demand (read+write) MSHR hits
system.l2.demand_mshr_hits::cpu.data               18                       # number of demand (read+write) MSHR hits
system.l2.demand_mshr_hits::total                  29                       # number of demand (read+write) MSHR hits
system.l2.overall_mshr_hits::cpu.inst              11                       # number of overall MSHR hits
system.l2.overall_mshr_hits::cpu.data              18                       # number of overall MSHR hits
system.l2.overall_mshr_hits::total                 29                       # number of overall MSHR hits
system.l2.HardPFReq_mshr_misses::l2.prefetcher          107                       # number of HardPFReq MSHR misses
system.l2.HardPFReq_mshr_misses::total            107                       # number of HardPFReq MSHR misses
system.l2.ReadExReq_mshr_misses::cpu.data          130                       # number of ReadExReq MSHR misses
system.l2.ReadExReq_mshr_misses::total            130                       # number of ReadExReq MSHR misses
system.l2.ReadCleanReq_mshr_misses::cpu.inst         1119                       # number of ReadCleanReq MSHR misses
system.l2.ReadCleanReq_mshr_misses::total         1119                       # number of ReadCleanReq MSHR misses
system.l2.ReadSharedReq_mshr_misses::cpu.data          308                       # number of ReadSharedReq MSHR misses
system.l2.ReadSharedReq_mshr_misses::total          308                       # number of ReadSharedReq MSHR misses
system.l2.demand_mshr_misses::cpu.inst           1119                       # number of demand (read+write) MSHR misses
system.l2.demand_mshr_misses::cpu.data            438                       # number of demand (read+write) MSHR misses
system.l2.demand_mshr_misses::total              1557                       # number of demand (read+write) MSHR misses
system.l2.overall_mshr_misses::cpu.inst          1119                       # number of overall MSHR misses
system.l2.overall_mshr_misses::cpu.data           438                       # number of overall MSHR misses
system.l2.overall_mshr_misses::l2.prefetcher          107                       # number of overall MSHR misses
system.l2.overall_mshr_misses::total             1664                       # number of overall MSHR misses
system.l2.HardPFReq_mshr_miss_latency::l2.prefetcher      5110246                       # number of HardPFReq MSHR miss cycles
system.l2.HardPFReq_mshr_miss_latency::total      5110246                       # number of HardPFReq MSHR miss cycles
system.l2.ReadExReq_mshr_miss_latency::cpu.data     14251952                       # number of ReadExReq MSHR miss cycles
system.l2.ReadExReq_mshr_miss_latency::total     14251952                       # number of ReadExReq MSHR miss cycles
system.l2.ReadCleanReq_mshr_miss_latency::cpu.inst    139774100                       # number of ReadCleanReq MSHR miss cycles
system.l2.ReadCleanReq_mshr_miss_latency::total    139774100                       # number of ReadCleanReq MSHR miss cycles
system.l2.ReadSharedReq_mshr_miss_latency::cpu.data     28985455                       # number of ReadSharedReq MSHR miss cycles
system.l2.ReadSharedReq_mshr_miss_latency::total     28985455                       # number of ReadSharedReq MSHR miss cycles
system.l2.demand_mshr_miss_latency::cpu.inst    139774100                       # number of demand (read+write) MSHR miss cycles
system.l2.demand_mshr_miss_latency::cpu.data     43237407                       # number of demand (read+write) MSHR miss cycles
system.l2.demand_mshr_miss_latency::total    183011507                       # number of demand (read+write) MSHR miss cycles
system.l2.overall_mshr_miss_latency::cpu.inst    139774100                       # number of overall MSHR miss cycles
system.l2.overall_mshr_miss_latency::cpu.data     43237407                       # number of overall MSHR miss cycles
system.l2.overall_mshr_miss_latency::l2.prefetcher      5110246                       # number of overall MSHR miss cycles
system.l2.overall_mshr_miss_latency::total    188121753                       # number of overall MSHR miss cycles
system.l2.HardPFReq_mshr_miss_rate::l2.prefetcher          inf                       # mshr miss rate for HardPFReq accesses
system.l2.HardPFReq_mshr_miss_rate::total          inf                       # mshr miss rate for HardPFReq accesses
system.l2.ReadExReq_mshr_miss_rate::cpu.data     0.769231                       # mshr miss rate for ReadExReq accesses
system.l2.ReadExReq_mshr_miss_rate::total     0.769231                       # mshr miss rate for ReadExReq accesses
system.l2.ReadCleanReq_mshr_miss_rate::cpu.inst     0.177366                       # mshr miss rate for ReadCleanReq accesses
system.l2.ReadCleanReq_mshr_miss_rate::total     0.177366                       # mshr miss rate for ReadCleanReq accesses
system.l2.ReadSharedReq_mshr_miss_rate::cpu.data     0.922156                       # mshr miss rate for ReadSharedReq accesses
system.l2.ReadSharedReq_mshr_miss_rate::total     0.922156                       # mshr miss rate for ReadSharedReq accesses
system.l2.demand_mshr_miss_rate::cpu.inst     0.177366                       # mshr miss rate for demand accesses
system.l2.demand_mshr_miss_rate::cpu.data     0.870775                       # mshr miss rate for demand accesses
system.l2.demand_mshr_miss_rate::total       0.228567                       # mshr miss rate for demand accesses
system.l2.overall_mshr_miss_rate::cpu.inst     0.177366                       # mshr miss rate for overall accesses
system.l2.overall_mshr_miss_rate::cpu.data     0.870775                       # mshr miss rate for overall accesses
system.l2.overall_mshr_miss_rate::l2.prefetcher          inf                       # mshr miss rate for overall accesses
system.l2.overall_mshr_miss_rate::total      0.244275                       # mshr miss rate for overall accesses
system.l2.HardPFReq_avg_mshr_miss_latency::l2.prefetcher 47759.308411                       # average HardPFReq mshr miss latency
system.l2.HardPFReq_avg_mshr_miss_latency::total 47759.308411                       # average HardPFReq mshr miss latency
system.l2.ReadExReq_avg_mshr_miss_latency::cpu.data 109630.400000                       # average ReadExReq mshr miss latency
system.l2.ReadExReq_avg_mshr_miss_latency::total 109630.400000                       # average ReadExReq mshr miss latency
system.l2.ReadCleanReq_avg_mshr_miss_latency::cpu.inst 124909.830206                       # average ReadCleanReq mshr miss latency
system.l2.ReadCleanReq_avg_mshr_miss_latency::total 124909.830206                       # average ReadCleanReq mshr miss latency
system.l2.ReadSharedReq_avg_mshr_miss_latency::cpu.data 94108.620130                       # average ReadSharedReq mshr miss latency
system.l2.ReadSharedReq_avg_mshr_miss_latency::total 94108.620130                       # average ReadSharedReq mshr miss latency
system.l2.demand_avg_mshr_miss_latency::cpu.inst 124909.830206                       # average overall mshr miss latency
system.l2.demand_avg_mshr_miss_latency::cpu.data 98715.541096                       # average overall mshr miss latency
system.l2.demand_avg_mshr_miss_latency::total 117541.109184                       # average overall mshr miss latency
system.l2.overall_avg_mshr_miss_latency::cpu.inst 124909.830206                       # average overall mshr miss latency
system.l2.overall_avg_mshr_miss_latency::cpu.data 98715.541096                       # average overall mshr miss latency
system.l2.overall_avg_mshr_miss_latency::l2.prefetcher 47759.308411                       # average overall mshr miss latency
system.l2.overall_avg_mshr_miss_latency::total 113053.938101                       # average overall mshr miss latency
system.membus.snoop_filter.tot_requests          1611                       # Total number of requests made to the snoop filter.
system.membus.snoop_filter.hit_single_requests          302                       # Number of requests hitting in the snoop filter with a single holder of the requested data.
system.membus.snoop_filter.hit_multi_requests            0                       # Number of requests hitting in the snoop filter with multiple (>1) holders of the requested data.
system.membus.snoop_filter.tot_snoops               0                       # Total number of snoops made to the snoop filter.
system.membus.snoop_filter.hit_single_snoops            0                       # Number of snoops hitting in the snoop filter with a single holder of the requested data.
system.membus.snoop_filter.hit_multi_snoops            0                       # Number of snoops hitting in the snoop filter with multiple (>1) holders of the requested data.
system.membus.pwrStateResidencyTicks::UNDEFINED  73996041406                       # Cumulative time (in ticks) in various power states
system.membus.trans_dist::ReadResp               1480                       # Transaction distribution
system.membus.trans_dist::ReadExReq               130                       # Transaction distribution
system.membus.trans_dist::ReadExResp              130                       # Transaction distribution
system.membus.trans_dist::ReadCleanReq           1481                       # Transaction distribution
system.membus.pkt_count_system.l2.mem_side::system.mem_ctrls.port         3221                       # Packet count per connected master and slave (bytes)
system.membus.pkt_count::total                   3221                       # Packet count per connected master and slave (bytes)
system.membus.pkt_size_system.l2.mem_side::system.mem_ctrls.port       103040                       # Cumulative packet size per connected master and slave (bytes)
system.membus.pkt_size::total                  103040                       # Cumulative packet size per connected master and slave (bytes)
system.membus.snoops                                0                       # Total snoops (count)
system.membus.snoopTraffic                          0                       # Total snoop traffic (bytes)
system.membus.snoop_fanout::samples              1611                       # Request fanout histogram
system.membus.snoop_fanout::mean                    0                       # Request fanout histogram
system.membus.snoop_fanout::stdev                   0                       # Request fanout histogram
system.membus.snoop_fanout::underflows              0      0.00%      0.00% # Request fanout histogram
system.membus.snoop_fanout::0                    1611    100.00%    100.00% # Request fanout histogram
system.membus.snoop_fanout::1                       0      0.00%    100.00% # Request fanout histogram
system.membus.snoop_fanout::overflows               0      0.00%    100.00% # Request fanout histogram
system.membus.snoop_fanout::min_value               0                       # Request fanout histogram
system.membus.snoop_fanout::max_value               0                       # Request fanout histogram
system.membus.snoop_fanout::total                1611                       # Request fanout histogram
system.membus.reqLayer0.occupancy             2365771                       # Layer occupancy (ticks)
system.membus.reqLayer0.utilization               0.0                       # Layer utilization (%)
system.membus.respLayer1.occupancy            8762137                       # Layer occupancy (ticks)
system.membus.respLayer1.utilization              0.0                       # Layer utilization (%)
system.tol2bus.snoop_filter.tot_requests        12639                       # Total number of requests made to the snoop filter.
system.tol2bus.snoop_filter.hit_single_requests         5890                       # Number of requests hitting in the snoop filter with a single holder of the requested data.
system.tol2bus.snoop_filter.hit_multi_requests          268                       # Number of requests hitting in the snoop filter with multiple (>1) holders of the requested data.
system.tol2bus.snoop_filter.tot_snoops             53                       # Total number of snoops made to the snoop filter.
system.tol2bus.snoop_filter.hit_single_snoops           53                       # Number of snoops hitting in the snoop filter with a single holder of the requested data.
system.tol2bus.snoop_filter.hit_multi_snoops            0                       # Number of snoops hitting in the snoop filter with multiple (>1) holders of the requested data.
system.tol2bus.pwrStateResidencyTicks::UNDEFINED  73996041406                       # Cumulative time (in ticks) in various power states
system.tol2bus.trans_dist::ReadResp              6642                       # Transaction distribution
system.tol2bus.trans_dist::WritebackDirty            1                       # Transaction distribution
system.tol2bus.trans_dist::WritebackClean         5826                       # Transaction distribution
system.tol2bus.trans_dist::HardPFReq              139                       # Transaction distribution
system.tol2bus.trans_dist::ReadExReq              169                       # Transaction distribution
system.tol2bus.trans_dist::ReadExResp             169                       # Transaction distribution
system.tol2bus.trans_dist::ReadCleanReq          6309                       # Transaction distribution
system.tol2bus.trans_dist::ReadSharedReq          334                       # Transaction distribution
system.tol2bus.pkt_count_system.cpu.icache.mem_side::system.l2.cpu_side        18435                       # Packet count per connected master and slave (bytes)
system.tol2bus.pkt_count_system.cpu.dcache.mem_side::system.l2.cpu_side         1015                       # Packet count per connected master and slave (bytes)
system.tol2bus.pkt_count::total                 19450                       # Packet count per connected master and slave (bytes)
system.tol2bus.pkt_size_system.cpu.icache.mem_side::system.l2.cpu_side       776064                       # Cumulative packet size per connected master and slave (bytes)
system.tol2bus.pkt_size_system.cpu.dcache.mem_side::system.l2.cpu_side        32768                       # Cumulative packet size per connected master and slave (bytes)
system.tol2bus.pkt_size::total                 808832                       # Cumulative packet size per connected master and slave (bytes)
system.tol2bus.snoops                             139                       # Total snoops (count)
system.tol2bus.snoopTraffic                         0                       # Total snoop traffic (bytes)
system.tol2bus.snoop_fanout::samples             6951                       # Request fanout histogram
system.tol2bus.snoop_fanout::mean            0.055244                       # Request fanout histogram
system.tol2bus.snoop_fanout::stdev           0.228472                       # Request fanout histogram
system.tol2bus.snoop_fanout::underflows             0      0.00%      0.00% # Request fanout histogram
system.tol2bus.snoop_fanout::0                   6567     94.48%     94.48% # Request fanout histogram
system.tol2bus.snoop_fanout::1                    384      5.52%    100.00% # Request fanout histogram
system.tol2bus.snoop_fanout::2                      0      0.00%    100.00% # Request fanout histogram
system.tol2bus.snoop_fanout::3                      0      0.00%    100.00% # Request fanout histogram
system.tol2bus.snoop_fanout::4                      0      0.00%    100.00% # Request fanout histogram
system.tol2bus.snoop_fanout::overflows              0      0.00%    100.00% # Request fanout histogram
system.tol2bus.snoop_fanout::min_value              0                       # Request fanout histogram
system.tol2bus.snoop_fanout::max_value              1                       # Request fanout histogram
system.tol2bus.snoop_fanout::total               6951                       # Request fanout histogram
system.tol2bus.reqLayer0.occupancy           20236069                       # Layer occupancy (ticks)
system.tol2bus.reqLayer0.utilization              0.0                       # Layer utilization (%)
system.tol2bus.respLayer0.occupancy          15772844                       # Layer occupancy (ticks)
system.tol2bus.respLayer0.utilization             0.0                       # Layer utilization (%)
system.tol2bus.respLayer1.occupancy           1271973                       # Layer occupancy (ticks)
system.tol2bus.respLayer1.utilization             0.0                       # Layer utilization (%)

---------- End Simulation Statistics   ----------
