
---------- Begin Simulation Statistics ----------
sim_seconds                                  0.178266                       # Number of seconds simulated
sim_ticks                                178265592729                       # Number of ticks simulated
final_tick                               178265592729                       # Number of ticks from beginning of simulation (restored from checkpoints and never reset)
sim_freq                                 1000000000000                       # Frequency of simulated ticks
host_inst_rate                                 233402                       # Simulator instruction rate (inst/s)
host_op_rate                                   265815                       # Simulator op (including micro ops) rate (op/s)
host_tick_rate                              297478149                       # Simulator tick rate (ticks/s)
host_mem_usage                                1195188                       # Number of bytes of host memory used
host_seconds                                   599.26                       # Real time elapsed on the host
sim_insts                                   139867506                       # Number of instructions simulated
sim_ops                                     159290994                       # Number of ops (including micro ops) simulated
system.voltage_domain.voltage                       1                       # Voltage in Volts
system.clk_domain.clock                          1000                       # Clock period in ticks
system.mem_ctrls.pwrStateResidencyTicks::UNDEFINED 178265592729                       # Cumulative time (in ticks) in various power states
system.mem_ctrls.bytes_read::cpu.inst           29376                       # Number of bytes read from this memory
system.mem_ctrls.bytes_read::cpu.data         1695232                       # Number of bytes read from this memory
system.mem_ctrls.bytes_read::l2.prefetcher       113088                       # Number of bytes read from this memory
system.mem_ctrls.bytes_read::total            1837696                       # Number of bytes read from this memory
system.mem_ctrls.bytes_inst_read::cpu.inst        29376                       # Number of instructions bytes read from this memory
system.mem_ctrls.bytes_inst_read::total         29376                       # Number of instructions bytes read from this memory
system.mem_ctrls.bytes_written::writebacks      1226304                       # Number of bytes written to this memory
system.mem_ctrls.bytes_written::total         1226304                       # Number of bytes written to this memory
system.mem_ctrls.num_reads::cpu.inst              459                       # Number of read requests responded to by this memory
system.mem_ctrls.num_reads::cpu.data            26488                       # Number of read requests responded to by this memory
system.mem_ctrls.num_reads::l2.prefetcher         1767                       # Number of read requests responded to by this memory
system.mem_ctrls.num_reads::total               28714                       # Number of read requests responded to by this memory
system.mem_ctrls.num_writes::writebacks         19161                       # Number of write requests responded to by this memory
system.mem_ctrls.num_writes::total              19161                       # Number of write requests responded to by this memory
system.mem_ctrls.bw_read::cpu.inst             164788                       # Total read bandwidth from this memory (bytes/s)
system.mem_ctrls.bw_read::cpu.data            9509586                       # Total read bandwidth from this memory (bytes/s)
system.mem_ctrls.bw_read::l2.prefetcher        634379                       # Total read bandwidth from this memory (bytes/s)
system.mem_ctrls.bw_read::total              10308753                       # Total read bandwidth from this memory (bytes/s)
system.mem_ctrls.bw_inst_read::cpu.inst        164788                       # Instruction read bandwidth from this memory (bytes/s)
system.mem_ctrls.bw_inst_read::total           164788                       # Instruction read bandwidth from this memory (bytes/s)
system.mem_ctrls.bw_write::writebacks         6879084                       # Write bandwidth from this memory (bytes/s)
system.mem_ctrls.bw_write::total              6879084                       # Write bandwidth from this memory (bytes/s)
system.mem_ctrls.bw_total::writebacks         6879084                       # Total bandwidth to/from this memory (bytes/s)
system.mem_ctrls.bw_total::cpu.inst            164788                       # Total bandwidth to/from this memory (bytes/s)
system.mem_ctrls.bw_total::cpu.data           9509586                       # Total bandwidth to/from this memory (bytes/s)
system.mem_ctrls.bw_total::l2.prefetcher       634379                       # Total bandwidth to/from this memory (bytes/s)
system.mem_ctrls.bw_total::total             17187837                       # Total bandwidth to/from this memory (bytes/s)
system.mem_ctrls.readReqs                       28714                       # Number of read requests accepted
system.mem_ctrls.writeReqs                      19161                       # Number of write requests accepted
system.mem_ctrls.readBursts                     57428                       # Number of DRAM read bursts, including those serviced by the write queue
system.mem_ctrls.writeBursts                    38322                       # Number of DRAM write bursts, including those merged in the write queue
system.mem_ctrls.bytesReadDRAM                1837696                       # Total number of bytes read from DRAM
system.mem_ctrls.bytesReadWrQ                       0                       # Total number of bytes read from write queue
system.mem_ctrls.bytesWritten                 1225376                       # Total number of bytes written to DRAM
system.mem_ctrls.bytesReadSys                 1837696                       # Total read bytes from the system interface side
system.mem_ctrls.bytesWrittenSys              1226304                       # Total written bytes from the system interface side
system.mem_ctrls.servicedByWrQ                      0                       # Number of DRAM read bursts serviced by the write queue
system.mem_ctrls.mergedWrBursts                     0                       # Number of DRAM write bursts merged with an existing one
system.mem_ctrls.neitherReadNorWriteReqs            0                       # Number of requests that are neither read nor write
system.mem_ctrls.perBankRdBursts::0              7204                       # Per bank write bursts
system.mem_ctrls.perBankRdBursts::1              7084                       # Per bank write bursts
system.mem_ctrls.perBankRdBursts::2              7052                       # Per bank write bursts
system.mem_ctrls.perBankRdBursts::3              7346                       # Per bank write bursts
system.mem_ctrls.perBankRdBursts::4              7282                       # Per bank write bursts
system.mem_ctrls.perBankRdBursts::5              7146                       # Per bank write bursts
system.mem_ctrls.perBankRdBursts::6              7176                       # Per bank write bursts
system.mem_ctrls.perBankRdBursts::7              7138                       # Per bank write bursts
system.mem_ctrls.perBankWrBursts::0              4754                       # Per bank write bursts
system.mem_ctrls.perBankWrBursts::1              4756                       # Per bank write bursts
system.mem_ctrls.perBankWrBursts::2              4746                       # Per bank write bursts
system.mem_ctrls.perBankWrBursts::3              4878                       # Per bank write bursts
system.mem_ctrls.perBankWrBursts::4              4838                       # Per bank write bursts
system.mem_ctrls.perBankWrBursts::5              4802                       # Per bank write bursts
system.mem_ctrls.perBankWrBursts::6              4782                       # Per bank write bursts
system.mem_ctrls.perBankWrBursts::7              4737                       # Per bank write bursts
system.mem_ctrls.numRdRetry                         0                       # Number of times read queue was full causing retry
system.mem_ctrls.numWrRetry                         0                       # Number of times write queue was full causing retry
system.mem_ctrls.totGap                  176526393687                       # Total gap between requests
system.mem_ctrls.readPktSize::0                     0                       # Read request sizes (log2)
system.mem_ctrls.readPktSize::1                     0                       # Read request sizes (log2)
system.mem_ctrls.readPktSize::2                     0                       # Read request sizes (log2)
system.mem_ctrls.readPktSize::3                     0                       # Read request sizes (log2)
system.mem_ctrls.readPktSize::4                     0                       # Read request sizes (log2)
system.mem_ctrls.readPktSize::5                 57428                       # Read request sizes (log2)
system.mem_ctrls.writePktSize::0                    0                       # Write request sizes (log2)
system.mem_ctrls.writePktSize::1                    0                       # Write request sizes (log2)
system.mem_ctrls.writePktSize::2                    0                       # Write request sizes (log2)
system.mem_ctrls.writePktSize::3                    0                       # Write request sizes (log2)
system.mem_ctrls.writePktSize::4                    0                       # Write request sizes (log2)
system.mem_ctrls.writePktSize::5                38322                       # Write request sizes (log2)
system.mem_ctrls.rdQLenPdf::0                   26754                       # What read queue length does an incoming req see
system.mem_ctrls.rdQLenPdf::1                   26757                       # What read queue length does an incoming req see
system.mem_ctrls.rdQLenPdf::2                    1912                       # What read queue length does an incoming req see
system.mem_ctrls.rdQLenPdf::3                    1913                       # What read queue length does an incoming req see
system.mem_ctrls.rdQLenPdf::4                      32                       # What read queue length does an incoming req see
system.mem_ctrls.rdQLenPdf::5                      28                       # What read queue length does an incoming req see
system.mem_ctrls.rdQLenPdf::6                       7                       # What read queue length does an incoming req see
system.mem_ctrls.rdQLenPdf::7                       7                       # What read queue length does an incoming req see
system.mem_ctrls.rdQLenPdf::8                       4                       # What read queue length does an incoming req see
system.mem_ctrls.rdQLenPdf::9                       4                       # What read queue length does an incoming req see
system.mem_ctrls.rdQLenPdf::10                      2                       # What read queue length does an incoming req see
system.mem_ctrls.rdQLenPdf::11                      2                       # What read queue length does an incoming req see
system.mem_ctrls.rdQLenPdf::12                      1                       # What read queue length does an incoming req see
system.mem_ctrls.rdQLenPdf::13                      1                       # What read queue length does an incoming req see
system.mem_ctrls.rdQLenPdf::14                      1                       # What read queue length does an incoming req see
system.mem_ctrls.rdQLenPdf::15                      1                       # What read queue length does an incoming req see
system.mem_ctrls.rdQLenPdf::16                      1                       # What read queue length does an incoming req see
system.mem_ctrls.rdQLenPdf::17                      1                       # What read queue length does an incoming req see
system.mem_ctrls.rdQLenPdf::18                      0                       # What read queue length does an incoming req see
system.mem_ctrls.rdQLenPdf::19                      0                       # What read queue length does an incoming req see
system.mem_ctrls.rdQLenPdf::20                      0                       # What read queue length does an incoming req see
system.mem_ctrls.rdQLenPdf::21                      0                       # What read queue length does an incoming req see
system.mem_ctrls.rdQLenPdf::22                      0                       # What read queue length does an incoming req see
system.mem_ctrls.rdQLenPdf::23                      0                       # What read queue length does an incoming req see
system.mem_ctrls.rdQLenPdf::24                      0                       # What read queue length does an incoming req see
system.mem_ctrls.rdQLenPdf::25                      0                       # What read queue length does an incoming req see
system.mem_ctrls.rdQLenPdf::26                      0                       # What read queue length does an incoming req see
system.mem_ctrls.rdQLenPdf::27                      0                       # What read queue length does an incoming req see
system.mem_ctrls.rdQLenPdf::28                      0                       # What read queue length does an incoming req see
system.mem_ctrls.rdQLenPdf::29                      0                       # What read queue length does an incoming req see
system.mem_ctrls.rdQLenPdf::30                      0                       # What read queue length does an incoming req see
system.mem_ctrls.rdQLenPdf::31                      0                       # What read queue length does an incoming req see
system.mem_ctrls.wrQLenPdf::0                       1                       # What write queue length does an incoming req see
system.mem_ctrls.wrQLenPdf::1                       1                       # What write queue length does an incoming req see
system.mem_ctrls.wrQLenPdf::2                       1                       # What write queue length does an incoming req see
system.mem_ctrls.wrQLenPdf::3                       1                       # What write queue length does an incoming req see
system.mem_ctrls.wrQLenPdf::4                       1                       # What write queue length does an incoming req see
system.mem_ctrls.wrQLenPdf::5                       1                       # What write queue length does an incoming req see
system.mem_ctrls.wrQLenPdf::6                       1                       # What write queue length does an incoming req see
system.mem_ctrls.wrQLenPdf::7                       1                       # What write queue length does an incoming req see
system.mem_ctrls.wrQLenPdf::8                       1                       # What write queue length does an incoming req see
system.mem_ctrls.wrQLenPdf::9                       1                       # What write queue length does an incoming req see
system.mem_ctrls.wrQLenPdf::10                      1                       # What write queue length does an incoming req see
system.mem_ctrls.wrQLenPdf::11                      1                       # What write queue length does an incoming req see
system.mem_ctrls.wrQLenPdf::12                      1                       # What write queue length does an incoming req see
system.mem_ctrls.wrQLenPdf::13                      1                       # What write queue length does an incoming req see
system.mem_ctrls.wrQLenPdf::14                      1                       # What write queue length does an incoming req see
system.mem_ctrls.wrQLenPdf::15                   2014                       # What write queue length does an incoming req see
system.mem_ctrls.wrQLenPdf::16                   2029                       # What write queue length does an incoming req see
system.mem_ctrls.wrQLenPdf::17                   2119                       # What write queue length does an incoming req see
system.mem_ctrls.wrQLenPdf::18                   2119                       # What write queue length does an incoming req see
system.mem_ctrls.wrQLenPdf::19                   2119                       # What write queue length does an incoming req see
system.mem_ctrls.wrQLenPdf::20                   2119                       # What write queue length does an incoming req see
system.mem_ctrls.wrQLenPdf::21                   2119                       # What write queue length does an incoming req see
system.mem_ctrls.wrQLenPdf::22                   2119                       # What write queue length does an incoming req see
system.mem_ctrls.wrQLenPdf::23                   2119                       # What write queue length does an incoming req see
system.mem_ctrls.wrQLenPdf::24                   2129                       # What write queue length does an incoming req see
system.mem_ctrls.wrQLenPdf::25                   2151                       # What write queue length does an incoming req see
system.mem_ctrls.wrQLenPdf::26                   2201                       # What write queue length does an incoming req see
system.mem_ctrls.wrQLenPdf::27                   2225                       # What write queue length does an incoming req see
system.mem_ctrls.wrQLenPdf::28                   2171                       # What write queue length does an incoming req see
system.mem_ctrls.wrQLenPdf::29                   2147                       # What write queue length does an incoming req see
system.mem_ctrls.wrQLenPdf::30                   2146                       # What write queue length does an incoming req see
system.mem_ctrls.wrQLenPdf::31                   2124                       # What write queue length does an incoming req see
system.mem_ctrls.wrQLenPdf::32                   2120                       # What write queue length does an incoming req see
system.mem_ctrls.wrQLenPdf::33                     17                       # What write queue length does an incoming req see
system.mem_ctrls.wrQLenPdf::34                      0                       # What write queue length does an incoming req see
system.mem_ctrls.wrQLenPdf::35                      0                       # What write queue length does an incoming req see
system.mem_ctrls.wrQLenPdf::36                      0                       # What write queue length does an incoming req see
system.mem_ctrls.wrQLenPdf::37                      0                       # What write queue length does an incoming req see
system.mem_ctrls.wrQLenPdf::38                      0                       # What write queue length does an incoming req see
system.mem_ctrls.wrQLenPdf::39                      0                       # What write queue length does an incoming req see
system.mem_ctrls.wrQLenPdf::40                      0                       # What write queue length does an incoming req see
system.mem_ctrls.wrQLenPdf::41                      0                       # What write queue length does an incoming req see
system.mem_ctrls.wrQLenPdf::42                      0                       # What write queue length does an incoming req see
system.mem_ctrls.wrQLenPdf::43                      0                       # What write queue length does an incoming req see
system.mem_ctrls.wrQLenPdf::44                      0                       # What write queue length does an incoming req see
system.mem_ctrls.wrQLenPdf::45                      0                       # What write queue length does an incoming req see
system.mem_ctrls.wrQLenPdf::46                      0                       # What write queue length does an incoming req see
system.mem_ctrls.wrQLenPdf::47                      0                       # What write queue length does an incoming req see
system.mem_ctrls.wrQLenPdf::48                      0                       # What write queue length does an incoming req see
system.mem_ctrls.wrQLenPdf::49                      0                       # What write queue length does an incoming req see
system.mem_ctrls.wrQLenPdf::50                      0                       # What write queue length does an incoming req see
system.mem_ctrls.wrQLenPdf::51                      0                       # What write queue length does an incoming req see
system.mem_ctrls.wrQLenPdf::52                      0                       # What write queue length does an incoming req see
system.mem_ctrls.wrQLenPdf::53                      0                       # What write queue length does an incoming req see
system.mem_ctrls.wrQLenPdf::54                      0                       # What write queue length does an incoming req see
system.mem_ctrls.wrQLenPdf::55                      0                       # What write queue length does an incoming req see
system.mem_ctrls.wrQLenPdf::56                      0                       # What write queue length does an incoming req see
system.mem_ctrls.wrQLenPdf::57                      0                       # What write queue length does an incoming req see
system.mem_ctrls.wrQLenPdf::58                      0                       # What write queue length does an incoming req see
system.mem_ctrls.wrQLenPdf::59                      0                       # What write queue length does an incoming req see
system.mem_ctrls.wrQLenPdf::60                      0                       # What write queue length does an incoming req see
system.mem_ctrls.wrQLenPdf::61                      0                       # What write queue length does an incoming req see
system.mem_ctrls.wrQLenPdf::62                      0                       # What write queue length does an incoming req see
system.mem_ctrls.wrQLenPdf::63                      0                       # What write queue length does an incoming req see
system.mem_ctrls.bytesPerActivate::samples        46737                       # Bytes accessed per row activation
system.mem_ctrls.bytesPerActivate::mean     65.538481                       # Bytes accessed per row activation
system.mem_ctrls.bytesPerActivate::gmean    63.084239                       # Bytes accessed per row activation
system.mem_ctrls.bytesPerActivate::stdev    21.718800                       # Bytes accessed per row activation
system.mem_ctrls.bytesPerActivate::0-63          3906      8.36%      8.36% # Bytes accessed per row activation
system.mem_ctrls.bytesPerActivate::64-127        40140     85.88%     94.24% # Bytes accessed per row activation
system.mem_ctrls.bytesPerActivate::128-191         2598      5.56%     99.80% # Bytes accessed per row activation
system.mem_ctrls.bytesPerActivate::192-255           31      0.07%     99.87% # Bytes accessed per row activation
system.mem_ctrls.bytesPerActivate::256-319           20      0.04%     99.91% # Bytes accessed per row activation
system.mem_ctrls.bytesPerActivate::320-383           10      0.02%     99.93% # Bytes accessed per row activation
system.mem_ctrls.bytesPerActivate::384-447            8      0.02%     99.95% # Bytes accessed per row activation
system.mem_ctrls.bytesPerActivate::448-511            5      0.01%     99.96% # Bytes accessed per row activation
system.mem_ctrls.bytesPerActivate::512-575           19      0.04%    100.00% # Bytes accessed per row activation
system.mem_ctrls.bytesPerActivate::total        46737                       # Bytes accessed per row activation
system.mem_ctrls.rdPerTurnAround::samples         2118                       # Reads before turning the bus around for writes
system.mem_ctrls.rdPerTurnAround::mean      27.114259                       # Reads before turning the bus around for writes
system.mem_ctrls.rdPerTurnAround::stdev    342.404271                       # Reads before turning the bus around for writes
system.mem_ctrls.rdPerTurnAround::0-511          2115     99.86%     99.86% # Reads before turning the bus around for writes
system.mem_ctrls.rdPerTurnAround::1024-1535            2      0.09%     99.95% # Reads before turning the bus around for writes
system.mem_ctrls.rdPerTurnAround::15360-15871            1      0.05%    100.00% # Reads before turning the bus around for writes
system.mem_ctrls.rdPerTurnAround::total          2118                       # Reads before turning the bus around for writes
system.mem_ctrls.wrPerTurnAround::samples         2118                       # Writes before turning the bus around for reads
system.mem_ctrls.wrPerTurnAround::mean      18.079792                       # Writes before turning the bus around for reads
system.mem_ctrls.wrPerTurnAround::gmean     18.065854                       # Writes before turning the bus around for reads
system.mem_ctrls.wrPerTurnAround::stdev      0.713430                       # Writes before turning the bus around for reads
system.mem_ctrls.wrPerTurnAround::16               90      4.25%      4.25% # Writes before turning the bus around for reads
system.mem_ctrls.wrPerTurnAround::17               15      0.71%      4.96% # Writes before turning the bus around for reads
system.mem_ctrls.wrPerTurnAround::18             1824     86.12%     91.08% # Writes before turning the bus around for reads
system.mem_ctrls.wrPerTurnAround::19               15      0.71%     91.78% # Writes before turning the bus around for reads
system.mem_ctrls.wrPerTurnAround::20              173      8.17%     99.95% # Writes before turning the bus around for reads
system.mem_ctrls.wrPerTurnAround::21                1      0.05%    100.00% # Writes before turning the bus around for reads
system.mem_ctrls.wrPerTurnAround::total          2118                       # Writes before turning the bus around for reads
system.mem_ctrls.totQLat                   1903377512                       # Total ticks spent queuing
system.mem_ctrls.totMemAccLat              3051937512                       # Total ticks spent from burst creation until serviced by the DRAM
system.mem_ctrls.totBusLat                  287140000                       # Total ticks spent in databus transfers
system.mem_ctrls.avgQLat                     33143.72                       # Average queueing delay per DRAM burst
system.mem_ctrls.avgBusLat                    5000.00                       # Average bus latency per DRAM burst
system.mem_ctrls.avgMemAccLat                53143.72                       # Average memory access latency per DRAM burst
system.mem_ctrls.avgRdBW                        10.31                       # Average DRAM read bandwidth in MiByte/s
system.mem_ctrls.avgWrBW                         6.87                       # Average achieved write bandwidth in MiByte/s
system.mem_ctrls.avgRdBWSys                     10.31                       # Average system read bandwidth in MiByte/s
system.mem_ctrls.avgWrBWSys                      6.88                       # Average system write bandwidth in MiByte/s
system.mem_ctrls.peakBW                       6400.00                       # Theoretical peak bandwidth in MiByte/s
system.mem_ctrls.busUtil                         0.27                       # Data bus utilization in percentage
system.mem_ctrls.busUtilRead                     0.16                       # Data bus utilization in percentage for reads
system.mem_ctrls.busUtilWrite                    0.11                       # Data bus utilization in percentage for writes
system.mem_ctrls.avgRdQLen                       2.01                       # Average read queue length when enqueuing
system.mem_ctrls.avgWrQLen                      19.67                       # Average write queue length when enqueuing
system.mem_ctrls.readRowHits                    30887                       # Number of row buffer hits during reads
system.mem_ctrls.writeRowHits                   18097                       # Number of row buffer hits during writes
system.mem_ctrls.readRowHitRate                 53.78                       # Row buffer hit rate for reads
system.mem_ctrls.writeRowHitRate                47.22                       # Row buffer hit rate for writes
system.mem_ctrls.avgGap                    3687235.38                       # Average gap between requests
system.mem_ctrls.pageHitRate                    51.16                       # Row buffer hit rate, read and write combined
system.mem_ctrls_0.actEnergy                 83425545                       # Energy for activate commands per rank (pJ)
system.mem_ctrls_0.preEnergy             43970169.600000                       # Energy for precharge commands per rank (pJ)
system.mem_ctrls_0.readEnergy                67535328                       # Energy for read commands per rank (pJ)
system.mem_ctrls_0.writeEnergy               35842248                       # Energy for write commands per rank (pJ)
system.mem_ctrls_0.refreshEnergy             73749000                       # Energy for refresh commands per rank (pJ)
system.mem_ctrls_0.actBackEnergy         118587238.500000                       # Energy for active background per rank (pJ)
system.mem_ctrls_0.preBackEnergy         4754179.200000                       # Energy for precharge background per rank (pJ)
system.mem_ctrls_0.actPowerDownEnergy    131377070.400000                       # Energy for active power-down per rank (pJ)
system.mem_ctrls_0.prePowerDownEnergy         1568493                       # Energy for precharge power-down per rank (pJ)
system.mem_ctrls_0.selfRefreshEnergy     511513333.050000                       # Energy for self refresh per rank (pJ)
system.mem_ctrls_0.totalEnergy           1072322604.750000                       # Total energy per rank (pJ)
system.mem_ctrls_0.averagePower              6.015309                       # Core power per rank (mW)
system.mem_ctrls_0.totalIdleTime         173661348025                       # Total Idle time Per DRAM Rank
system.mem_ctrls_0.memoryStateTime::IDLE     28756662                       # Time in different power states
system.mem_ctrls_0.memoryStateTime::REF     396987500                       # Time in different power states
system.mem_ctrls_0.memoryStateTime::SREF 166656043229                       # Time in different power states
system.mem_ctrls_0.memoryStateTime::PRE_PDN    435663907                       # Time in different power states
system.mem_ctrls_0.memoryStateTime::ACT    2390653625                       # Time in different power states
system.mem_ctrls_0.memoryStateTime::ACT_PDN   8357487806                       # Time in different power states
system.pwrStateResidencyTicks::UNDEFINED 178265592729                       # Cumulative time (in ticks) in various power states
system.cpu.branchPred.lookups                25644987                       # Number of BP lookups
system.cpu.branchPred.condPredicted          14855950                       # Number of conditional branches predicted
system.cpu.branchPred.condIncorrect             58750                       # Number of conditional branches incorrect
system.cpu.branchPred.BTBLookups              9518891                       # Number of BTB lookups
system.cpu.branchPred.BTBHits                 9518155                       # Number of BTB hits
system.cpu.branchPred.BTBCorrect                    0                       # Number of correct BTB predictions (this stat may not work properly.
system.cpu.branchPred.BTBHitPct             99.992268                       # BTB Hit Percentage
system.cpu.branchPred.usedRAS                 3645531                       # Number of times the RAS was used to get a target.
system.cpu.branchPred.RASInCorrect                  1                       # Number of incorrect RAS predictions.
system.cpu.branchPred.indirectLookups             134                       # Number of indirect predictor lookups.
system.cpu.branchPred.indirectHits                 12                       # Number of indirect target hits.
system.cpu.branchPred.indirectMisses              122                       # Number of indirect misses.
system.cpu.branchPredindirectMispredicted           60                       # Number of mispredicted indirect branches.
system.cpu_voltage_domain.voltage                   1                       # Voltage in Volts
system.cpu_clk_domain.clock                       833                       # Clock period in ticks
system.cpu.dstage2_mmu.stage2_tlb.walker.pwrStateResidencyTicks::UNDEFINED 178265592729                       # Cumulative time (in ticks) in various power states
system.cpu.dstage2_mmu.stage2_tlb.walker.walks            0                       # Table walker walks requested
system.cpu.dstage2_mmu.stage2_tlb.walker.walkRequestOrigin_Requested::Data            0                       # Table walker requests started/completed, data/inst
system.cpu.dstage2_mmu.stage2_tlb.walker.walkRequestOrigin_Requested::Inst            0                       # Table walker requests started/completed, data/inst
system.cpu.dstage2_mmu.stage2_tlb.walker.walkRequestOrigin_Requested::total            0                       # Table walker requests started/completed, data/inst
system.cpu.dstage2_mmu.stage2_tlb.walker.walkRequestOrigin_Completed::Data            0                       # Table walker requests started/completed, data/inst
system.cpu.dstage2_mmu.stage2_tlb.walker.walkRequestOrigin_Completed::Inst            0                       # Table walker requests started/completed, data/inst
system.cpu.dstage2_mmu.stage2_tlb.walker.walkRequestOrigin_Completed::total            0                       # Table walker requests started/completed, data/inst
system.cpu.dstage2_mmu.stage2_tlb.walker.walkRequestOrigin::total            0                       # Table walker requests started/completed, data/inst
system.cpu.dstage2_mmu.stage2_tlb.inst_hits            0                       # ITB inst hits
system.cpu.dstage2_mmu.stage2_tlb.inst_misses            0                       # ITB inst misses
system.cpu.dstage2_mmu.stage2_tlb.read_hits            0                       # DTB read hits
system.cpu.dstage2_mmu.stage2_tlb.read_misses            0                       # DTB read misses
system.cpu.dstage2_mmu.stage2_tlb.write_hits            0                       # DTB write hits
system.cpu.dstage2_mmu.stage2_tlb.write_misses            0                       # DTB write misses
system.cpu.dstage2_mmu.stage2_tlb.flush_tlb            0                       # Number of times complete TLB was flushed
system.cpu.dstage2_mmu.stage2_tlb.flush_tlb_mva            0                       # Number of times TLB was flushed by MVA
system.cpu.dstage2_mmu.stage2_tlb.flush_tlb_mva_asid            0                       # Number of times TLB was flushed by MVA & ASID
system.cpu.dstage2_mmu.stage2_tlb.flush_tlb_asid            0                       # Number of times TLB was flushed by ASID
system.cpu.dstage2_mmu.stage2_tlb.flush_entries            0                       # Number of entries that have been flushed from TLB
system.cpu.dstage2_mmu.stage2_tlb.align_faults            0                       # Number of TLB faults due to alignment restrictions
system.cpu.dstage2_mmu.stage2_tlb.prefetch_faults            0                       # Number of TLB faults due to prefetch
system.cpu.dstage2_mmu.stage2_tlb.domain_faults            0                       # Number of TLB faults due to domain restrictions
system.cpu.dstage2_mmu.stage2_tlb.perms_faults            0                       # Number of TLB faults due to permissions restrictions
system.cpu.dstage2_mmu.stage2_tlb.read_accesses            0                       # DTB read accesses
system.cpu.dstage2_mmu.stage2_tlb.write_accesses            0                       # DTB write accesses
system.cpu.dstage2_mmu.stage2_tlb.inst_accesses            0                       # ITB inst accesses
system.cpu.dstage2_mmu.stage2_tlb.hits              0                       # DTB hits
system.cpu.dstage2_mmu.stage2_tlb.misses            0                       # DTB misses
system.cpu.dstage2_mmu.stage2_tlb.accesses            0                       # DTB accesses
system.cpu.dtb.walker.pwrStateResidencyTicks::UNDEFINED 178265592729                       # Cumulative time (in ticks) in various power states
system.cpu.dtb.walker.walks                         0                       # Table walker walks requested
system.cpu.dtb.walker.walkRequestOrigin_Requested::Data            0                       # Table walker requests started/completed, data/inst
system.cpu.dtb.walker.walkRequestOrigin_Requested::Inst            0                       # Table walker requests started/completed, data/inst
system.cpu.dtb.walker.walkRequestOrigin_Requested::total            0                       # Table walker requests started/completed, data/inst
system.cpu.dtb.walker.walkRequestOrigin_Completed::Data            0                       # Table walker requests started/completed, data/inst
system.cpu.dtb.walker.walkRequestOrigin_Completed::Inst            0                       # Table walker requests started/completed, data/inst
system.cpu.dtb.walker.walkRequestOrigin_Completed::total            0                       # Table walker requests started/completed, data/inst
system.cpu.dtb.walker.walkRequestOrigin::total            0                       # Table walker requests started/completed, data/inst
system.cpu.dtb.inst_hits                            0                       # ITB inst hits
system.cpu.dtb.inst_misses                          0                       # ITB inst misses
system.cpu.dtb.read_hits                            0                       # DTB read hits
system.cpu.dtb.read_misses                          0                       # DTB read misses
system.cpu.dtb.write_hits                           0                       # DTB write hits
system.cpu.dtb.write_misses                         0                       # DTB write misses
system.cpu.dtb.flush_tlb                            0                       # Number of times complete TLB was flushed
system.cpu.dtb.flush_tlb_mva                        0                       # Number of times TLB was flushed by MVA
system.cpu.dtb.flush_tlb_mva_asid                   0                       # Number of times TLB was flushed by MVA & ASID
system.cpu.dtb.flush_tlb_asid                       0                       # Number of times TLB was flushed by ASID
system.cpu.dtb.flush_entries                        0                       # Number of entries that have been flushed from TLB
system.cpu.dtb.align_faults                         0                       # Number of TLB faults due to alignment restrictions
system.cpu.dtb.prefetch_faults                      0                       # Number of TLB faults due to prefetch
system.cpu.dtb.domain_faults                        0                       # Number of TLB faults due to domain restrictions
system.cpu.dtb.perms_faults                         0                       # Number of TLB faults due to permissions restrictions
system.cpu.dtb.read_accesses                        0                       # DTB read accesses
system.cpu.dtb.write_accesses                       0                       # DTB write accesses
system.cpu.dtb.inst_accesses                        0                       # ITB inst accesses
system.cpu.dtb.hits                                 0                       # DTB hits
system.cpu.dtb.misses                               0                       # DTB misses
system.cpu.dtb.accesses                             0                       # DTB accesses
system.cpu.istage2_mmu.stage2_tlb.walker.pwrStateResidencyTicks::UNDEFINED 178265592729                       # Cumulative time (in ticks) in various power states
system.cpu.istage2_mmu.stage2_tlb.walker.walks            0                       # Table walker walks requested
system.cpu.istage2_mmu.stage2_tlb.walker.walkRequestOrigin_Requested::Data            0                       # Table walker requests started/completed, data/inst
system.cpu.istage2_mmu.stage2_tlb.walker.walkRequestOrigin_Requested::Inst            0                       # Table walker requests started/completed, data/inst
system.cpu.istage2_mmu.stage2_tlb.walker.walkRequestOrigin_Requested::total            0                       # Table walker requests started/completed, data/inst
system.cpu.istage2_mmu.stage2_tlb.walker.walkRequestOrigin_Completed::Data            0                       # Table walker requests started/completed, data/inst
system.cpu.istage2_mmu.stage2_tlb.walker.walkRequestOrigin_Completed::Inst            0                       # Table walker requests started/completed, data/inst
system.cpu.istage2_mmu.stage2_tlb.walker.walkRequestOrigin_Completed::total            0                       # Table walker requests started/completed, data/inst
system.cpu.istage2_mmu.stage2_tlb.walker.walkRequestOrigin::total            0                       # Table walker requests started/completed, data/inst
system.cpu.istage2_mmu.stage2_tlb.inst_hits            0                       # ITB inst hits
system.cpu.istage2_mmu.stage2_tlb.inst_misses            0                       # ITB inst misses
system.cpu.istage2_mmu.stage2_tlb.read_hits            0                       # DTB read hits
system.cpu.istage2_mmu.stage2_tlb.read_misses            0                       # DTB read misses
system.cpu.istage2_mmu.stage2_tlb.write_hits            0                       # DTB write hits
system.cpu.istage2_mmu.stage2_tlb.write_misses            0                       # DTB write misses
system.cpu.istage2_mmu.stage2_tlb.flush_tlb            0                       # Number of times complete TLB was flushed
system.cpu.istage2_mmu.stage2_tlb.flush_tlb_mva            0                       # Number of times TLB was flushed by MVA
system.cpu.istage2_mmu.stage2_tlb.flush_tlb_mva_asid            0                       # Number of times TLB was flushed by MVA & ASID
system.cpu.istage2_mmu.stage2_tlb.flush_tlb_asid            0                       # Number of times TLB was flushed by ASID
system.cpu.istage2_mmu.stage2_tlb.flush_entries            0                       # Number of entries that have been flushed from TLB
system.cpu.istage2_mmu.stage2_tlb.align_faults            0                       # Number of TLB faults due to alignment restrictions
system.cpu.istage2_mmu.stage2_tlb.prefetch_faults            0                       # Number of TLB faults due to prefetch
system.cpu.istage2_mmu.stage2_tlb.domain_faults            0                       # Number of TLB faults due to domain restrictions
system.cpu.istage2_mmu.stage2_tlb.perms_faults            0                       # Number of TLB faults due to permissions restrictions
system.cpu.istage2_mmu.stage2_tlb.read_accesses            0                       # DTB read accesses
system.cpu.istage2_mmu.stage2_tlb.write_accesses            0                       # DTB write accesses
system.cpu.istage2_mmu.stage2_tlb.inst_accesses            0                       # ITB inst accesses
system.cpu.istage2_mmu.stage2_tlb.hits              0                       # DTB hits
system.cpu.istage2_mmu.stage2_tlb.misses            0                       # DTB misses
system.cpu.istage2_mmu.stage2_tlb.accesses            0                       # DTB accesses
system.cpu.itb.walker.pwrStateResidencyTicks::UNDEFINED 178265592729                       # Cumulative time (in ticks) in various power states
system.cpu.itb.walker.walks                         0                       # Table walker walks requested
system.cpu.itb.walker.walkRequestOrigin_Requested::Data            0                       # Table walker requests started/completed, data/inst
system.cpu.itb.walker.walkRequestOrigin_Requested::Inst            0                       # Table walker requests started/completed, data/inst
system.cpu.itb.walker.walkRequestOrigin_Requested::total            0                       # Table walker requests started/completed, data/inst
system.cpu.itb.walker.walkRequestOrigin_Completed::Data            0                       # Table walker requests started/completed, data/inst
system.cpu.itb.walker.walkRequestOrigin_Completed::Inst            0                       # Table walker requests started/completed, data/inst
system.cpu.itb.walker.walkRequestOrigin_Completed::total            0                       # Table walker requests started/completed, data/inst
system.cpu.itb.walker.walkRequestOrigin::total            0                       # Table walker requests started/completed, data/inst
system.cpu.itb.inst_hits                            0                       # ITB inst hits
system.cpu.itb.inst_misses                          0                       # ITB inst misses
system.cpu.itb.read_hits                            0                       # DTB read hits
system.cpu.itb.read_misses                          0                       # DTB read misses
system.cpu.itb.write_hits                           0                       # DTB write hits
system.cpu.itb.write_misses                         0                       # DTB write misses
system.cpu.itb.flush_tlb                            0                       # Number of times complete TLB was flushed
system.cpu.itb.flush_tlb_mva                        0                       # Number of times TLB was flushed by MVA
system.cpu.itb.flush_tlb_mva_asid                   0                       # Number of times TLB was flushed by MVA & ASID
system.cpu.itb.flush_tlb_asid                       0                       # Number of times TLB was flushed by ASID
system.cpu.itb.flush_entries                        0                       # Number of entries that have been flushed from TLB
system.cpu.itb.align_faults                         0                       # Number of TLB faults due to alignment restrictions
system.cpu.itb.prefetch_faults                      0                       # Number of TLB faults due to prefetch
system.cpu.itb.domain_faults                        0                       # Number of TLB faults due to domain restrictions
system.cpu.itb.perms_faults                         0                       # Number of TLB faults due to permissions restrictions
system.cpu.itb.read_accesses                        0                       # DTB read accesses
system.cpu.itb.write_accesses                       0                       # DTB write accesses
system.cpu.itb.inst_accesses                        0                       # ITB inst accesses
system.cpu.itb.hits                                 0                       # DTB hits
system.cpu.itb.misses                               0                       # DTB misses
system.cpu.itb.accesses                             0                       # DTB accesses
system.cpu.workload.numSyscalls                    18                       # Number of system calls
system.cpu.pwrStateResidencyTicks::ON    178265592729                       # Cumulative time (in ticks) in various power states
system.cpu.numCycles                        214004314                       # number of cpu cycles simulated
system.cpu.numWorkItemsStarted                      0                       # number of work items this cpu started
system.cpu.numWorkItemsCompleted                    0                       # number of work items this cpu completed
system.cpu.fetch.icacheStallCycles              68694                       # Number of cycles fetch is stalled on an Icache miss
system.cpu.fetch.Insts                      141976358                       # Number of instructions fetch has processed
system.cpu.fetch.Branches                    25644987                       # Number of branches that fetch encountered
system.cpu.fetch.predictedBranches           13163698                       # Number of branches that fetch has predicted taken
system.cpu.fetch.Cycles                     213842184                       # Number of cycles fetch has run and was not squashing or blocked
system.cpu.fetch.SquashCycles                  118376                       # Number of cycles fetch has spent squashing
system.cpu.fetch.MiscStallCycles                   32                       # Number of cycles fetch has spent waiting on interrupts, or bad addresses, or out of MSHRs
system.cpu.fetch.PendingTrapStallCycles            70                       # Number of stall cycles due to pending traps
system.cpu.fetch.IcacheWaitRetryStallCycles          356                       # Number of stall cycles due to full MSHR
system.cpu.fetch.CacheLines                  94298990                       # Number of cache lines fetched
system.cpu.fetch.IcacheSquashes                   230                       # Number of outstanding Icache misses that were squashed
system.cpu.fetch.rateDist::samples          213970524                       # Number of instructions fetched each cycle (Total)
system.cpu.fetch.rateDist::mean              0.755407                       # Number of instructions fetched each cycle (Total)
system.cpu.fetch.rateDist::stdev             0.838856                       # Number of instructions fetched each cycle (Total)
system.cpu.fetch.rateDist::underflows               0      0.00%      0.00% # Number of instructions fetched each cycle (Total)
system.cpu.fetch.rateDist::0                107851510     50.40%     50.40% # Number of instructions fetched each cycle (Total)
system.cpu.fetch.rateDist::1                 50603123     23.65%     74.05% # Number of instructions fetched each cycle (Total)
system.cpu.fetch.rateDist::2                 55515891     25.95%    100.00% # Number of instructions fetched each cycle (Total)
system.cpu.fetch.rateDist::overflows                0      0.00%    100.00% # Number of instructions fetched each cycle (Total)
system.cpu.fetch.rateDist::min_value                0                       # Number of instructions fetched each cycle (Total)
system.cpu.fetch.rateDist::max_value                2                       # Number of instructions fetched each cycle (Total)
system.cpu.fetch.rateDist::total            213970524                       # Number of instructions fetched each cycle (Total)
system.cpu.fetch.branchRate                  0.119834                       # Number of branch fetches per cycle
system.cpu.fetch.rate                        0.663428                       # Number of inst fetches per cycle
system.cpu.decode.IdleCycles                 17784407                       # Number of cycles decode is idle
system.cpu.decode.BlockedCycles             116021751                       # Number of cycles decode is blocked
system.cpu.decode.RunCycles                  56600399                       # Number of cycles decode is running
system.cpu.decode.UnblockCycles              23505089                       # Number of cycles decode is unblocking
system.cpu.decode.SquashCycles                  58878                       # Number of cycles decode is squashing
system.cpu.decode.BranchResolved              9420316                       # Number of times decode resolved a branch
system.cpu.decode.BranchMispred                   315                       # Number of times decode detected a branch misprediction
system.cpu.decode.DecodedInsts              159667131                       # Number of instructions handled by decode
system.cpu.decode.SquashedInsts                230744                       # Number of squashed instructions handled by decode
system.cpu.rename.SquashCycles                  58878                       # Number of cycles rename is squashing
system.cpu.rename.IdleCycles                 29750237                       # Number of cycles rename is idle
system.cpu.rename.BlockCycles                10682902                       # Number of cycles rename is blocking
system.cpu.rename.serializeStallCycles       73024879                       # count of cycles rename stalled for serializing inst
system.cpu.rename.RunCycles                  67816967                       # Number of cycles rename is running
system.cpu.rename.UnblockCycles              32636661                       # Number of cycles rename is unblocking
system.cpu.rename.RenamedInsts              159433210                       # Number of instructions processed by rename
system.cpu.rename.SquashedInsts                114731                       # Number of squashed instructions processed by rename
system.cpu.rename.ROBFullEvents               1533486                       # Number of times rename has blocked due to ROB full
system.cpu.rename.IQFullEvents                      2                       # Number of times rename has blocked due to IQ full
system.cpu.rename.LQFullEvents                7694837                       # Number of times rename has blocked due to LQ full
system.cpu.rename.SQFullEvents                9573863                       # Number of times rename has blocked due to SQ full
system.cpu.rename.FullRegisterEvents                1                       # Number of times there has been no free registers
system.cpu.rename.RenamedOperands           177155331                       # Number of destination operands rename has renamed
system.cpu.rename.RenameLookups             716633409                       # Number of register rename lookups that rename has made
system.cpu.rename.int_rename_lookups        161809505                       # Number of integer rename lookups
system.cpu.rename.fp_rename_lookups                73                       # Number of floating rename lookups
system.cpu.rename.CommittedMaps             176953685                       # Number of HB maps that are committed
system.cpu.rename.UndoneMaps                   201638                       # Number of HB maps that are undone due to squashing
system.cpu.rename.serializingInsts            3531299                       # count of serializing insts renamed
system.cpu.rename.tempSerializingInsts        3531298                       # count of temporary serializing insts renamed
system.cpu.rename.skidInsts                  29542215                       # count of insts added to the skid buffer
system.cpu.memDep0.insertedLoads             30024681                       # Number of loads inserted to the mem dependence unit.
system.cpu.memDep0.insertedStores            25311249                       # Number of stores inserted to the mem dependence unit.
system.cpu.memDep0.conflictingLoads           2936670                       # Number of conflicting loads.
system.cpu.memDep0.conflictingStores               13                       # Number of conflicting stores.
system.cpu.iq.iqInstsAdded                  152330718                       # Number of instructions added to the IQ (excludes non-spec)
system.cpu.iq.iqNonSpecInstsAdded             7062579                       # Number of non-speculative instructions added to the IQ
system.cpu.iq.iqInstsIssued                 159391545                       # Number of instructions issued
system.cpu.iq.iqSquashedInstsIssued               119                       # Number of squashed instructions issued
system.cpu.iq.iqSquashedInstsExamined          102297                       # Number of squashed instructions iterated over during squash; mainly for profiling
system.cpu.iq.iqSquashedOperandsExamined        14737                       # Number of squashed operands that are examined and possibly removed from graph
system.cpu.iq.iqSquashedNonSpecRemoved              2                       # Number of squashed non-spec instructions that were removed
system.cpu.iq.issued_per_cycle::samples     213970524                       # Number of insts issued each cycle
system.cpu.iq.issued_per_cycle::mean         0.744923                       # Number of insts issued each cycle
system.cpu.iq.issued_per_cycle::stdev        0.837984                       # Number of insts issued each cycle
system.cpu.iq.issued_per_cycle::underflows            0      0.00%      0.00% # Number of insts issued each cycle
system.cpu.iq.issued_per_cycle::0           109377231     51.12%     51.12% # Number of insts issued each cycle
system.cpu.iq.issued_per_cycle::1            49795041     23.27%     74.39% # Number of insts issued each cycle
system.cpu.iq.issued_per_cycle::2            54798252     25.61%    100.00% # Number of insts issued each cycle
system.cpu.iq.issued_per_cycle::overflows            0      0.00%    100.00% # Number of insts issued each cycle
system.cpu.iq.issued_per_cycle::min_value            0                       # Number of insts issued each cycle
system.cpu.iq.issued_per_cycle::max_value            2                       # Number of insts issued each cycle
system.cpu.iq.issued_per_cycle::total       213970524                       # Number of insts issued each cycle
system.cpu.iq.fu_full::No_OpClass                   0      0.00%      0.00% # attempts to use FU when none available
system.cpu.iq.fu_full::IntAlu                       0      0.00%      0.00% # attempts to use FU when none available
system.cpu.iq.fu_full::IntMult                      0      0.00%      0.00% # attempts to use FU when none available
system.cpu.iq.fu_full::IntDiv                       0      0.00%      0.00% # attempts to use FU when none available
system.cpu.iq.fu_full::FloatAdd                     0      0.00%      0.00% # attempts to use FU when none available
system.cpu.iq.fu_full::FloatCmp                     0      0.00%      0.00% # attempts to use FU when none available
system.cpu.iq.fu_full::FloatCvt                     0      0.00%      0.00% # attempts to use FU when none available
system.cpu.iq.fu_full::FloatMult                    0      0.00%      0.00% # attempts to use FU when none available
system.cpu.iq.fu_full::FloatMultAcc                 0      0.00%      0.00% # attempts to use FU when none available
system.cpu.iq.fu_full::FloatDiv                     0      0.00%      0.00% # attempts to use FU when none available
system.cpu.iq.fu_full::FloatMisc                    0      0.00%      0.00% # attempts to use FU when none available
system.cpu.iq.fu_full::FloatSqrt                    0      0.00%      0.00% # attempts to use FU when none available
system.cpu.iq.fu_full::SimdAdd                      0      0.00%      0.00% # attempts to use FU when none available
system.cpu.iq.fu_full::SimdAddAcc                   0      0.00%      0.00% # attempts to use FU when none available
system.cpu.iq.fu_full::SimdAlu                      0      0.00%      0.00% # attempts to use FU when none available
system.cpu.iq.fu_full::SimdCmp                      0      0.00%      0.00% # attempts to use FU when none available
system.cpu.iq.fu_full::SimdCvt                      0      0.00%      0.00% # attempts to use FU when none available
system.cpu.iq.fu_full::SimdMisc                     0      0.00%      0.00% # attempts to use FU when none available
system.cpu.iq.fu_full::SimdMult                     0      0.00%      0.00% # attempts to use FU when none available
system.cpu.iq.fu_full::SimdMultAcc                  0      0.00%      0.00% # attempts to use FU when none available
system.cpu.iq.fu_full::SimdShift                    0      0.00%      0.00% # attempts to use FU when none available
system.cpu.iq.fu_full::SimdShiftAcc                 0      0.00%      0.00% # attempts to use FU when none available
system.cpu.iq.fu_full::SimdSqrt                     0      0.00%      0.00% # attempts to use FU when none available
system.cpu.iq.fu_full::SimdFloatAdd                 0      0.00%      0.00% # attempts to use FU when none available
system.cpu.iq.fu_full::SimdFloatAlu                 0      0.00%      0.00% # attempts to use FU when none available
system.cpu.iq.fu_full::SimdFloatCmp                 0      0.00%      0.00% # attempts to use FU when none available
system.cpu.iq.fu_full::SimdFloatCvt                 0      0.00%      0.00% # attempts to use FU when none available
system.cpu.iq.fu_full::SimdFloatDiv                 0      0.00%      0.00% # attempts to use FU when none available
system.cpu.iq.fu_full::SimdFloatMisc                0      0.00%      0.00% # attempts to use FU when none available
system.cpu.iq.fu_full::SimdFloatMult                0      0.00%      0.00% # attempts to use FU when none available
system.cpu.iq.fu_full::SimdFloatMultAcc             0      0.00%      0.00% # attempts to use FU when none available
system.cpu.iq.fu_full::SimdFloatSqrt                0      0.00%      0.00% # attempts to use FU when none available
system.cpu.iq.fu_full::MemRead                 913624     14.85%     14.85% # attempts to use FU when none available
system.cpu.iq.fu_full::MemWrite               5237300     85.15%    100.00% # attempts to use FU when none available
system.cpu.iq.fu_full::FloatMemRead                 0      0.00%    100.00% # attempts to use FU when none available
system.cpu.iq.fu_full::FloatMemWrite                2      0.00%    100.00% # attempts to use FU when none available
system.cpu.iq.fu_full::IprAccess                    0      0.00%    100.00% # attempts to use FU when none available
system.cpu.iq.fu_full::InstPrefetch                 0      0.00%    100.00% # attempts to use FU when none available
system.cpu.iq.FU_type_0::No_OpClass                 7      0.00%      0.00% # Type of FU issued
system.cpu.iq.FU_type_0::IntAlu             102289821     64.18%     64.18% # Type of FU issued
system.cpu.iq.FU_type_0::IntMult              1766072      1.11%     65.28% # Type of FU issued
system.cpu.iq.FU_type_0::IntDiv                     0      0.00%     65.28% # Type of FU issued
system.cpu.iq.FU_type_0::FloatAdd                   0      0.00%     65.28% # Type of FU issued
system.cpu.iq.FU_type_0::FloatCmp                   0      0.00%     65.28% # Type of FU issued
system.cpu.iq.FU_type_0::FloatCvt                   0      0.00%     65.28% # Type of FU issued
system.cpu.iq.FU_type_0::FloatMult                  0      0.00%     65.28% # Type of FU issued
system.cpu.iq.FU_type_0::FloatMultAcc               0      0.00%     65.28% # Type of FU issued
system.cpu.iq.FU_type_0::FloatDiv                   0      0.00%     65.28% # Type of FU issued
system.cpu.iq.FU_type_0::FloatMisc                  0      0.00%     65.28% # Type of FU issued
system.cpu.iq.FU_type_0::FloatSqrt                  0      0.00%     65.28% # Type of FU issued
system.cpu.iq.FU_type_0::SimdAdd                    3      0.00%     65.28% # Type of FU issued
system.cpu.iq.FU_type_0::SimdAddAcc                 0      0.00%     65.28% # Type of FU issued
system.cpu.iq.FU_type_0::SimdAlu                    0      0.00%     65.28% # Type of FU issued
system.cpu.iq.FU_type_0::SimdCmp                    0      0.00%     65.28% # Type of FU issued
system.cpu.iq.FU_type_0::SimdCvt                    0      0.00%     65.28% # Type of FU issued
system.cpu.iq.FU_type_0::SimdMisc                   0      0.00%     65.28% # Type of FU issued
system.cpu.iq.FU_type_0::SimdMult                   0      0.00%     65.28% # Type of FU issued
system.cpu.iq.FU_type_0::SimdMultAcc                0      0.00%     65.28% # Type of FU issued
system.cpu.iq.FU_type_0::SimdShift                  0      0.00%     65.28% # Type of FU issued
system.cpu.iq.FU_type_0::SimdShiftAcc               0      0.00%     65.28% # Type of FU issued
system.cpu.iq.FU_type_0::SimdSqrt                   0      0.00%     65.28% # Type of FU issued
system.cpu.iq.FU_type_0::SimdFloatAdd               0      0.00%     65.28% # Type of FU issued
system.cpu.iq.FU_type_0::SimdFloatAlu               0      0.00%     65.28% # Type of FU issued
system.cpu.iq.FU_type_0::SimdFloatCmp               0      0.00%     65.28% # Type of FU issued
system.cpu.iq.FU_type_0::SimdFloatCvt               0      0.00%     65.28% # Type of FU issued
system.cpu.iq.FU_type_0::SimdFloatDiv               0      0.00%     65.28% # Type of FU issued
system.cpu.iq.FU_type_0::SimdFloatMisc              1      0.00%     65.28% # Type of FU issued
system.cpu.iq.FU_type_0::SimdFloatMult              0      0.00%     65.28% # Type of FU issued
system.cpu.iq.FU_type_0::SimdFloatMultAcc            0      0.00%     65.28% # Type of FU issued
system.cpu.iq.FU_type_0::SimdFloatSqrt              0      0.00%     65.28% # Type of FU issued
system.cpu.iq.FU_type_0::MemRead             30024555     18.84%     84.12% # Type of FU issued
system.cpu.iq.FU_type_0::MemWrite            25311037     15.88%    100.00% # Type of FU issued
system.cpu.iq.FU_type_0::FloatMemRead              21      0.00%    100.00% # Type of FU issued
system.cpu.iq.FU_type_0::FloatMemWrite             28      0.00%    100.00% # Type of FU issued
system.cpu.iq.FU_type_0::IprAccess                  0      0.00%    100.00% # Type of FU issued
system.cpu.iq.FU_type_0::InstPrefetch               0      0.00%    100.00% # Type of FU issued
system.cpu.iq.FU_type_0::total              159391545                       # Type of FU issued
system.cpu.iq.rate                           0.744805                       # Inst issue rate
system.cpu.iq.fu_busy_cnt                     6150926                       # FU busy when requested
system.cpu.iq.fu_busy_rate                   0.038590                       # FU busy rate (busy events/executed inst)
system.cpu.iq.int_inst_queue_reads          538904548                       # Number of integer instruction queue reads
system.cpu.iq.int_inst_queue_writes         159495925                       # Number of integer instruction queue writes
system.cpu.iq.int_inst_queue_wakeup_accesses    159389236                       # Number of integer instruction queue wakeup accesses
system.cpu.iq.fp_inst_queue_reads                 109                       # Number of floating instruction queue reads
system.cpu.iq.fp_inst_queue_writes                 81                       # Number of floating instruction queue writes
system.cpu.iq.fp_inst_queue_wakeup_accesses           43                       # Number of floating instruction queue wakeup accesses
system.cpu.iq.vec_inst_queue_reads                  0                       # Number of vector instruction queue reads
system.cpu.iq.vec_inst_queue_writes                 0                       # Number of vector instruction queue writes
system.cpu.iq.vec_inst_queue_wakeup_accesses            0                       # Number of vector instruction queue wakeup accesses
system.cpu.iq.int_alu_accesses              165542409                       # Number of integer alu accesses
system.cpu.iq.fp_alu_accesses                      55                       # Number of floating point alu accesses
system.cpu.iq.vec_alu_accesses                      0                       # Number of vector alu accesses
system.cpu.iew.lsq.thread0.forwLoads          1179085                       # Number of loads that had data forwarded from stores
system.cpu.iew.lsq.thread0.invAddrLoads             0                       # Number of loads ignored due to an invalid address
system.cpu.iew.lsq.thread0.squashedLoads         3256                       # Number of loads squashed
system.cpu.iew.lsq.thread0.ignoredResponses          151                       # Number of memory responses ignored because the instruction is squashed
system.cpu.iew.lsq.thread0.memOrderViolation          412                       # Number of memory ordering violations
system.cpu.iew.lsq.thread0.squashedStores          350                       # Number of stores squashed
system.cpu.iew.lsq.thread0.invAddrSwpfs             0                       # Number of software prefetches ignored due to an invalid address
system.cpu.iew.lsq.thread0.blockedLoads             0                       # Number of blocked loads due to partial load-store forwarding
system.cpu.iew.lsq.thread0.rescheduledLoads            0                       # Number of loads that were rescheduled
system.cpu.iew.lsq.thread0.cacheBlocked             0                       # Number of times an access to memory failed due to the cache being blocked
system.cpu.iew.iewIdleCycles                        0                       # Number of cycles IEW is idle
system.cpu.iew.iewSquashCycles                  58878                       # Number of cycles IEW is squashing
system.cpu.iew.iewBlockCycles                    2573                       # Number of cycles IEW is blocking
system.cpu.iew.iewUnblockCycles                  2257                       # Number of cycles IEW is unblocking
system.cpu.iew.iewDispatchedInsts           159393302                       # Number of instructions dispatched to IQ
system.cpu.iew.iewDispSquashedInsts                 0                       # Number of squashed instructions skipped by dispatch
system.cpu.iew.iewDispLoadInsts              30024681                       # Number of dispatched load instructions
system.cpu.iew.iewDispStoreInsts             25311249                       # Number of dispatched store instructions
system.cpu.iew.iewDispNonSpecInsts            3531298                       # Number of dispatched non-speculative instructions
system.cpu.iew.iewIQFullEvents                      1                       # Number of times the IQ has become full, causing a stall
system.cpu.iew.iewLSQFullEvents                  2032                       # Number of times the LSQ has become full, causing a stall
system.cpu.iew.memOrderViolationEvents            412                       # Number of memory order violations
system.cpu.iew.predictedTakenIncorrect          57888                       # Number of branches that were predicted taken incorrectly
system.cpu.iew.predictedNotTakenIncorrect          688                       # Number of branches that were predicted not taken incorrectly
system.cpu.iew.branchMispredicts                58576                       # Number of branch mispredicts detected at execute
system.cpu.iew.iewExecutedInsts             159390363                       # Number of executed instructions
system.cpu.iew.iewExecLoadInsts              30024310                       # Number of load instructions executed
system.cpu.iew.iewExecSquashedInsts              1180                       # Number of squashed instructions skipped in execute
system.cpu.iew.exec_swp                             0                       # number of swp insts executed
system.cpu.iew.exec_nop                             5                       # number of nop insts executed
system.cpu.iew.exec_refs                     55335286                       # number of memory reference insts executed
system.cpu.iew.exec_branches                 25255413                       # Number of branches executed
system.cpu.iew.exec_stores                   25310976                       # Number of stores executed
system.cpu.iew.exec_rate                     0.744800                       # Inst execution rate
system.cpu.iew.wb_sent                      159389583                       # cumulative count of insts sent to commit
system.cpu.iew.wb_count                     159389279                       # cumulative count of insts written-back
system.cpu.iew.wb_producers                  66754642                       # num instructions producing a value
system.cpu.iew.wb_consumers                  84308989                       # num instructions consuming a value
system.cpu.iew.wb_rate                       0.744795                       # insts written-back per cycle
system.cpu.iew.wb_fanout                     0.791786                       # average fanout of values written-back
system.cpu.commit.commitSquashedInsts          101606                       # The number of squashed insts skipped by commit
system.cpu.commit.commitNonSpecStalls         7062577                       # The number of times commit has been forced to stall to communicate backwards
system.cpu.commit.branchMispredicts             58447                       # The number of times a branch was mispredicted
system.cpu.commit.committed_per_cycle::samples    213909326                       # Number of insts commited each cycle
system.cpu.commit.committed_per_cycle::mean     0.744666                       # Number of insts commited each cycle
system.cpu.commit.committed_per_cycle::stdev     0.846937                       # Number of insts commited each cycle
system.cpu.commit.committed_per_cycle::underflows            0      0.00%      0.00% # Number of insts commited each cycle
system.cpu.commit.committed_per_cycle::0    111000957     51.89%     51.89% # Number of insts commited each cycle
system.cpu.commit.committed_per_cycle::1     46525744     21.75%     73.64% # Number of insts commited each cycle
system.cpu.commit.committed_per_cycle::2     56382625     26.36%    100.00% # Number of insts commited each cycle
system.cpu.commit.committed_per_cycle::overflows            0      0.00%    100.00% # Number of insts commited each cycle
system.cpu.commit.committed_per_cycle::min_value            0                       # Number of insts commited each cycle
system.cpu.commit.committed_per_cycle::max_value            2                       # Number of insts commited each cycle
system.cpu.commit.committed_per_cycle::total    213909326                       # Number of insts commited each cycle
system.cpu.commit.committedInsts            139867506                       # Number of instructions committed
system.cpu.commit.committedOps              159290994                       # Number of ops (including micro ops) committed
system.cpu.commit.swp_count                         0                       # Number of s/w prefetches committed
system.cpu.commit.refs                       55332323                       # Number of memory references committed
system.cpu.commit.loads                      30021424                       # Number of loads committed
system.cpu.commit.membars                     3531280                       # Number of memory barriers committed
system.cpu.commit.branches                   25254995                       # Number of branches committed
system.cpu.commit.vec_insts                         0                       # Number of committed Vector instructions.
system.cpu.commit.fp_insts                         39                       # Number of committed floating point instructions.
system.cpu.commit.int_insts                 134093208                       # Number of committed integer instructions.
system.cpu.commit.function_calls              3531446                       # Number of function calls committed.
system.cpu.commit.op_class_0::No_OpClass            0      0.00%      0.00% # Class of committed instruction
system.cpu.commit.op_class_0::IntAlu        102193030     64.15%     64.15% # Class of committed instruction
system.cpu.commit.op_class_0::IntMult         1765640      1.11%     65.26% # Class of committed instruction
system.cpu.commit.op_class_0::IntDiv                0      0.00%     65.26% # Class of committed instruction
system.cpu.commit.op_class_0::FloatAdd              0      0.00%     65.26% # Class of committed instruction
system.cpu.commit.op_class_0::FloatCmp              0      0.00%     65.26% # Class of committed instruction
system.cpu.commit.op_class_0::FloatCvt              0      0.00%     65.26% # Class of committed instruction
system.cpu.commit.op_class_0::FloatMult             0      0.00%     65.26% # Class of committed instruction
system.cpu.commit.op_class_0::FloatMultAcc            0      0.00%     65.26% # Class of committed instruction
system.cpu.commit.op_class_0::FloatDiv              0      0.00%     65.26% # Class of committed instruction
system.cpu.commit.op_class_0::FloatMisc             0      0.00%     65.26% # Class of committed instruction
system.cpu.commit.op_class_0::FloatSqrt             0      0.00%     65.26% # Class of committed instruction
system.cpu.commit.op_class_0::SimdAdd               0      0.00%     65.26% # Class of committed instruction
system.cpu.commit.op_class_0::SimdAddAcc            0      0.00%     65.26% # Class of committed instruction
system.cpu.commit.op_class_0::SimdAlu               0      0.00%     65.26% # Class of committed instruction
system.cpu.commit.op_class_0::SimdCmp               0      0.00%     65.26% # Class of committed instruction
system.cpu.commit.op_class_0::SimdCvt               0      0.00%     65.26% # Class of committed instruction
system.cpu.commit.op_class_0::SimdMisc              0      0.00%     65.26% # Class of committed instruction
system.cpu.commit.op_class_0::SimdMult              0      0.00%     65.26% # Class of committed instruction
system.cpu.commit.op_class_0::SimdMultAcc            0      0.00%     65.26% # Class of committed instruction
system.cpu.commit.op_class_0::SimdShift             0      0.00%     65.26% # Class of committed instruction
system.cpu.commit.op_class_0::SimdShiftAcc            0      0.00%     65.26% # Class of committed instruction
system.cpu.commit.op_class_0::SimdSqrt              0      0.00%     65.26% # Class of committed instruction
system.cpu.commit.op_class_0::SimdFloatAdd            0      0.00%     65.26% # Class of committed instruction
system.cpu.commit.op_class_0::SimdFloatAlu            0      0.00%     65.26% # Class of committed instruction
system.cpu.commit.op_class_0::SimdFloatCmp            0      0.00%     65.26% # Class of committed instruction
system.cpu.commit.op_class_0::SimdFloatCvt            0      0.00%     65.26% # Class of committed instruction
system.cpu.commit.op_class_0::SimdFloatDiv            0      0.00%     65.26% # Class of committed instruction
system.cpu.commit.op_class_0::SimdFloatMisc            1      0.00%     65.26% # Class of committed instruction
system.cpu.commit.op_class_0::SimdFloatMult            0      0.00%     65.26% # Class of committed instruction
system.cpu.commit.op_class_0::SimdFloatMultAcc            0      0.00%     65.26% # Class of committed instruction
system.cpu.commit.op_class_0::SimdFloatSqrt            0      0.00%     65.26% # Class of committed instruction
system.cpu.commit.op_class_0::MemRead        30021413     18.85%     84.11% # Class of committed instruction
system.cpu.commit.op_class_0::MemWrite       25310872     15.89%    100.00% # Class of committed instruction
system.cpu.commit.op_class_0::FloatMemRead           11      0.00%    100.00% # Class of committed instruction
system.cpu.commit.op_class_0::FloatMemWrite           27      0.00%    100.00% # Class of committed instruction
system.cpu.commit.op_class_0::IprAccess             0      0.00%    100.00% # Class of committed instruction
system.cpu.commit.op_class_0::InstPrefetch            0      0.00%    100.00% # Class of committed instruction
system.cpu.commit.op_class_0::total         159290994                       # Class of committed instruction
system.cpu.commit.bw_lim_events              56382625                       # number cycles where commit BW limit reached
system.cpu.rob.rob_reads                    316919054                       # The number of ROB reads
system.cpu.rob.rob_writes                   318846405                       # The number of ROB writes
system.cpu.timesIdled                             387                       # Number of times that the entire CPU went into an idle state and unscheduled itself
system.cpu.idleCycles                           33790                       # Total number of cycles that the CPU has spent unscheduled due to idling
system.cpu.committedInsts                   139867506                       # Number of Instructions Simulated
system.cpu.committedOps                     159290994                       # Number of Ops (including micro ops) Simulated
system.cpu.cpi                               1.530050                       # CPI: Cycles Per Instruction
system.cpu.cpi_total                         1.530050                       # CPI: Total CPI of All Threads
[...]
system.l2.overall_miss_rate::total           0.044390                       # miss rate for overall accesses
system.l2.ReadExReq_avg_miss_latency::cpu.data 108185.429161                       # average ReadExReq miss latency
system.l2.ReadExReq_avg_miss_latency::total 108185.429161                       # average ReadExReq miss latency
system.l2.ReadCleanReq_avg_miss_latency::cpu.inst 98530.196970                       # average ReadCleanReq miss latency
system.l2.ReadCleanReq_avg_miss_latency::total 98530.196970                       # average ReadCleanReq miss latency
system.l2.ReadSharedReq_avg_miss_latency::cpu.data 105815.742574                       # average ReadSharedReq miss latency
system.l2.ReadSharedReq_avg_miss_latency::total 105815.742574                       # average ReadSharedReq miss latency
system.l2.demand_avg_miss_latency::cpu.inst 98530.196970                       # average overall miss latency
system.l2.demand_avg_miss_latency::cpu.data 108176.394798                       # average overall miss latency
system.l2.demand_avg_miss_latency::total 108011.055947                       # average overall miss latency
system.l2.overall_avg_miss_latency::cpu.inst 98530.196970                       # average overall miss latency
system.l2.overall_avg_miss_latency::cpu.data 108176.394798                       # average overall miss latency
system.l2.overall_avg_miss_latency::total 108011.055947                       # average overall miss latency
system.l2.blocked_cycles::no_mshrs                  0                       # number of cycles access was blocked
system.l2.blocked_cycles::no_targets                0                       # number of cycles access was blocked
system.l2.blocked::no_mshrs                         0                       # number of cycles access was blocked
system.l2.blocked::no_targets                       0                       # number of cycles access was blocked
system.l2.avg_blocked_cycles::no_mshrs            nan                       # average number of cycles each access was blocked
system.l2.avg_blocked_cycles::no_targets          nan                       # average number of cycles each access was blocked
system.l2.unused_prefetches                         4                       # number of HardPF blocks evicted w/o reference
system.l2.writebacks::writebacks                19161                       # number of writebacks
system.l2.writebacks::total                     19161                       # number of writebacks
system.l2.ReadCleanReq_mshr_hits::cpu.inst            3                       # number of ReadCleanReq MSHR hits
system.l2.ReadCleanReq_mshr_hits::total             3                       # number of ReadCleanReq MSHR hits
system.l2.ReadSharedReq_mshr_hits::cpu.data            4                       # number of ReadSharedReq MSHR hits
system.l2.ReadSharedReq_mshr_hits::total            4                       # number of ReadSharedReq MSHR hits
system.l2.demand_mshr_hits::cpu.inst                3                       # number of demand (read+write) MSHR hits
system.l2.demand_mshr_hits::cpu.data                4                       # number of demand (read+write) MSHR hits
system.l2.demand_mshr_hits::total                   7                       # number of demand (read+write) MSHR hits
system.l2.overall_mshr_hits::cpu.inst               3                       # number of overall MSHR hits
system.l2.overall_mshr_hits::cpu.data               4                       # number of overall MSHR hits
system.l2.overall_mshr_hits::total                  7                       # number of overall MSHR hits
system.l2.HardPFReq_mshr_misses::l2.prefetcher         1781                       # number of HardPFReq MSHR misses
system.l2.HardPFReq_mshr_misses::total           1781                       # number of HardPFReq MSHR misses
system.l2.ReadExReq_mshr_misses::cpu.data        26391                       # number of ReadExReq MSHR misses
system.l2.ReadExReq_mshr_misses::total          26391                       # number of ReadExReq MSHR misses
system.l2.ReadCleanReq_mshr_misses::cpu.inst          459                       # number of ReadCleanReq MSHR misses
system.l2.ReadCleanReq_mshr_misses::total          459                       # number of ReadCleanReq MSHR misses
system.l2.ReadSharedReq_mshr_misses::cpu.data           97                       # number of ReadSharedReq MSHR misses
system.l2.ReadSharedReq_mshr_misses::total           97                       # number of ReadSharedReq MSHR misses
system.l2.demand_mshr_misses::cpu.inst            459                       # number of demand (read+write) MSHR misses
system.l2.demand_mshr_misses::cpu.data          26488                       # number of demand (read+write) MSHR misses
system.l2.demand_mshr_misses::total             26947                       # number of demand (read+write) MSHR misses
system.l2.overall_mshr_misses::cpu.inst           459                       # number of overall MSHR misses
system.l2.overall_mshr_misses::cpu.data         26488                       # number of overall MSHR misses
system.l2.overall_mshr_misses::l2.prefetcher         1781                       # number of overall MSHR misses
system.l2.overall_mshr_misses::total            28728                       # number of overall MSHR misses
system.l2.HardPFReq_mshr_miss_latency::l2.prefetcher    149085988                       # number of HardPFReq MSHR miss cycles
system.l2.HardPFReq_mshr_miss_latency::total    149085988                       # number of HardPFReq MSHR miss cycles
system.l2.ReadExReq_mshr_miss_latency::cpu.data   2580005193                       # number of ReadExReq MSHR miss cycles
system.l2.ReadExReq_mshr_miss_latency::total   2580005193                       # number of ReadExReq MSHR miss cycles
system.l2.ReadCleanReq_mshr_miss_latency::cpu.inst     40577728                       # number of ReadCleanReq MSHR miss cycles
system.l2.ReadCleanReq_mshr_miss_latency::total     40577728                       # number of ReadCleanReq MSHR miss cycles
system.l2.ReadSharedReq_mshr_miss_latency::cpu.data      9167460                       # number of ReadSharedReq MSHR miss cycles
system.l2.ReadSharedReq_mshr_miss_latency::total      9167460                       # number of ReadSharedReq MSHR miss cycles
system.l2.demand_mshr_miss_latency::cpu.inst     40577728                       # number of demand (read+write) MSHR miss cycles
system.l2.demand_mshr_miss_latency::cpu.data   2589172653                       # number of demand (read+write) MSHR miss cycles
system.l2.demand_mshr_miss_latency::total   2629750381                       # number of demand (read+write) MSHR miss cycles
system.l2.overall_mshr_miss_latency::cpu.inst     40577728                       # number of overall MSHR miss cycles
system.l2.overall_mshr_miss_latency::cpu.data   2589172653                       # number of overall MSHR miss cycles
system.l2.overall_mshr_miss_latency::l2.prefetcher    149085988                       # number of overall MSHR miss cycles
system.l2.overall_mshr_miss_latency::total   2778836369                       # number of overall MSHR miss cycles
system.l2.HardPFReq_mshr_miss_rate::l2.prefetcher          inf                       # mshr miss rate for HardPFReq accesses
system.l2.HardPFReq_mshr_miss_rate::total          inf                       # mshr miss rate for HardPFReq accesses
system.l2.ReadExReq_mshr_miss_rate::cpu.data     0.043505                       # mshr miss rate for ReadExReq accesses
system.l2.ReadExReq_mshr_miss_rate::total     0.043505                       # mshr miss rate for ReadExReq accesses
system.l2.ReadCleanReq_mshr_miss_rate::cpu.inst     0.944444                       # mshr miss rate for ReadCleanReq accesses
system.l2.ReadCleanReq_mshr_miss_rate::total     0.944444                       # mshr miss rate for ReadCleanReq accesses
system.l2.ReadSharedReq_mshr_miss_rate::cpu.data     0.950980                       # mshr miss rate for ReadSharedReq accesses
system.l2.ReadSharedReq_mshr_miss_rate::total     0.950980                       # mshr miss rate for ReadSharedReq accesses
system.l2.demand_mshr_miss_rate::cpu.inst     0.944444                       # mshr miss rate for demand accesses
system.l2.demand_mshr_miss_rate::cpu.data     0.043658                       # mshr miss rate for demand accesses
system.l2.demand_mshr_miss_rate::total       0.044379                       # mshr miss rate for demand accesses
system.l2.overall_mshr_miss_rate::cpu.inst     0.944444                       # mshr miss rate for overall accesses
system.l2.overall_mshr_miss_rate::cpu.data     0.043658                       # mshr miss rate for overall accesses
system.l2.overall_mshr_miss_rate::l2.prefetcher          inf                       # mshr miss rate for overall accesses
system.l2.overall_mshr_miss_rate::total      0.047312                       # mshr miss rate for overall accesses
system.l2.HardPFReq_avg_mshr_miss_latency::l2.prefetcher 83709.145424                       # average HardPFReq mshr miss latency
system.l2.HardPFReq_avg_mshr_miss_latency::total 83709.145424                       # average HardPFReq mshr miss latency
system.l2.ReadExReq_avg_mshr_miss_latency::cpu.data 97760.796976                       # average ReadExReq mshr miss latency
system.l2.ReadExReq_avg_mshr_miss_latency::total 97760.796976                       # average ReadExReq mshr miss latency
system.l2.ReadCleanReq_avg_mshr_miss_latency::cpu.inst 88404.636166                       # average ReadCleanReq mshr miss latency
system.l2.ReadCleanReq_avg_mshr_miss_latency::total 88404.636166                       # average ReadCleanReq mshr miss latency
system.l2.ReadSharedReq_avg_mshr_miss_latency::cpu.data 94509.896907                       # average ReadSharedReq mshr miss latency
system.l2.ReadSharedReq_avg_mshr_miss_latency::total 94509.896907                       # average ReadSharedReq mshr miss latency
system.l2.demand_avg_mshr_miss_latency::cpu.inst 88404.636166                       # average overall mshr miss latency
system.l2.demand_avg_mshr_miss_latency::cpu.data 97748.892064                       # average overall mshr miss latency
system.l2.demand_avg_mshr_miss_latency::total 97589.727279                       # average overall mshr miss latency
system.l2.overall_avg_mshr_miss_latency::cpu.inst 88404.636166                       # average overall mshr miss latency
system.l2.overall_avg_mshr_miss_latency::cpu.data 97748.892064                       # average overall mshr miss latency
system.l2.overall_avg_mshr_miss_latency::l2.prefetcher 83709.145424                       # average overall mshr miss latency
system.l2.overall_avg_mshr_miss_latency::total 96729.196916                       # average overall mshr miss latency
system.membus.snoop_filter.tot_requests         48034                       # Total number of requests made to the snoop filter.
system.membus.snoop_filter.hit_single_requests        19339                       # Number of requests hitting in the snoop filter with a single holder of the requested data.
system.membus.snoop_filter.hit_multi_requests            0                       # Number of requests hitting in the snoop filter with multiple (>1) holders of the requested data.
system.membus.snoop_filter.tot_snoops               0                       # Total number of snoops made to the snoop filter.
system.membus.snoop_filter.hit_single_snoops            0                       # Number of snoops hitting in the snoop filter with a single holder of the requested data.
system.membus.snoop_filter.hit_multi_snoops            0                       # Number of snoops hitting in the snoop filter with multiple (>1) holders of the requested data.
system.membus.pwrStateResidencyTicks::UNDEFINED 178265592729                       # Cumulative time (in ticks) in various power states
system.membus.trans_dist::ReadResp               2323                       # Transaction distribution
system.membus.trans_dist::WritebackDirty        19161                       # Transaction distribution
system.membus.trans_dist::CleanEvict              159                       # Transaction distribution
system.membus.trans_dist::ReadExReq             26391                       # Transaction distribution
system.membus.trans_dist::ReadExResp            26391                       # Transaction distribution
system.membus.trans_dist::ReadCleanReq           2323                       # Transaction distribution
system.membus.pkt_count_system.l2.mem_side::system.mem_ctrls.port        76748                       # Packet count per connected master and slave (bytes)
system.membus.pkt_count::total                  76748                       # Packet count per connected master and slave (bytes)
system.membus.pkt_size_system.l2.mem_side::system.mem_ctrls.port      3064000                       # Cumulative packet size per connected master and slave (bytes)
system.membus.pkt_size::total                 3064000                       # Cumulative packet size per connected master and slave (bytes)
system.membus.snoops                                0                       # Total snoops (count)
system.membus.snoopTraffic                          0                       # Total snoop traffic (bytes)
system.membus.snoop_fanout::samples             28714                       # Request fanout histogram
system.membus.snoop_fanout::mean                    0                       # Request fanout histogram
system.membus.snoop_fanout::stdev                   0                       # Request fanout histogram
system.membus.snoop_fanout::underflows              0      0.00%      0.00% # Request fanout histogram
system.membus.snoop_fanout::0                   28714    100.00%    100.00% # Request fanout histogram
system.membus.snoop_fanout::1                       0      0.00%    100.00% # Request fanout histogram
system.membus.snoop_fanout::overflows               0      0.00%    100.00% # Request fanout histogram
system.membus.snoop_fanout::min_value               0                       # Request fanout histogram
system.membus.snoop_fanout::max_value               0                       # Request fanout histogram
system.membus.snoop_fanout::total               28714                       # Request fanout histogram
system.membus.reqLayer0.occupancy           147047958                       # Layer occupancy (ticks)
system.membus.reqLayer0.utilization               0.1                       # Layer utilization (%)
system.membus.respLayer1.occupancy          157057244                       # Layer occupancy (ticks)
system.membus.respLayer1.utilization              0.1                       # Layer utilization (%)
system.tol2bus.snoop_filter.tot_requests      1213028                       # Total number of requests made to the snoop filter.
system.tol2bus.snoop_filter.hit_single_requests       605825                       # Number of requests hitting in the snoop filter with a single holder of the requested data.
system.tol2bus.snoop_filter.hit_multi_requests           26                       # Number of requests hitting in the snoop filter with multiple (>1) holders of the requested data.
system.tol2bus.snoop_filter.tot_snoops             14                       # Total number of snoops made to the snoop filter.
system.tol2bus.snoop_filter.hit_single_snoops           14                       # Number of snoops hitting in the snoop filter with a single holder of the requested data.
system.tol2bus.snoop_filter.hit_multi_snoops            0                       # Number of snoops hitting in the snoop filter with multiple (>1) holders of the requested data.
system.tol2bus.pwrStateResidencyTicks::UNDEFINED 178265592729                       # Cumulative time (in ticks) in various power states
system.tol2bus.trans_dist::ReadResp               588                       # Transaction distribution
system.tol2bus.trans_dist::WritebackDirty       624781                       # Transaction distribution
system.tol2bus.trans_dist::WritebackClean          205                       # Transaction distribution
system.tol2bus.trans_dist::CleanEvict             159                       # Transaction distribution
system.tol2bus.trans_dist::HardPFReq             1788                       # Transaction distribution
system.tol2bus.trans_dist::ReadExReq           606615                       # Transaction distribution
system.tol2bus.trans_dist::ReadExResp          606615                       # Transaction distribution
system.tol2bus.trans_dist::ReadCleanReq           486                       # Transaction distribution
system.tol2bus.trans_dist::ReadSharedReq          102                       # Transaction distribution
system.tol2bus.pkt_count_system.cpu.icache.mem_side::system.l2.cpu_side         1104                       # Packet count per connected master and slave (bytes)
system.tol2bus.pkt_count_system.cpu.dcache.mem_side::system.l2.cpu_side      1819127                       # Packet count per connected master and slave (bytes)
system.tol2bus.pkt_count::total               1820231                       # Packet count per connected master and slave (bytes)
system.tol2bus.pkt_size_system.cpu.icache.mem_side::system.l2.cpu_side        39552                       # Cumulative packet size per connected master and slave (bytes)
system.tol2bus.pkt_size_system.cpu.dcache.mem_side::system.l2.cpu_side     77594240                       # Cumulative packet size per connected master and slave (bytes)
system.tol2bus.pkt_size::total               77633792                       # Cumulative packet size per connected master and slave (bytes)
system.tol2bus.snoops                           21108                       # Total snoops (count)
system.tol2bus.snoopTraffic                   1226304                       # Total snoop traffic (bytes)
system.tol2bus.snoop_fanout::samples           628311                       # Request fanout histogram
system.tol2bus.snoop_fanout::mean            0.000064                       # Request fanout histogram
system.tol2bus.snoop_fanout::stdev           0.007979                       # Request fanout histogram
system.tol2bus.snoop_fanout::underflows             0      0.00%      0.00% # Request fanout histogram
system.tol2bus.snoop_fanout::0                 628271     99.99%     99.99% # Request fanout histogram
system.tol2bus.snoop_fanout::1                     40      0.01%    100.00% # Request fanout histogram
system.tol2bus.snoop_fanout::2                      0      0.00%    100.00% # Request fanout histogram
system.tol2bus.snoop_fanout::3                      0      0.00%    100.00% # Request fanout histogram
system.tol2bus.snoop_fanout::4                      0      0.00%    100.00% # Request fanout histogram
system.tol2bus.snoop_fanout::overflows              0      0.00%    100.00% # Request fanout histogram
system.tol2bus.snoop_fanout::min_value              0                       # Request fanout histogram
system.tol2bus.snoop_fanout::max_value              1                       # Request fanout histogram
system.tol2bus.snoop_fanout::total             628311                       # Request fanout histogram
system.tol2bus.reqLayer0.occupancy         2019756774                       # Layer occupancy (ticks)
system.tol2bus.reqLayer0.utilization              1.1                       # Layer utilization (%)
system.tol2bus.respLayer0.occupancy           1217010                       # Layer occupancy (ticks)
system.tol2bus.respLayer0.utilization             0.0                       # Layer utilization (%)
system.tol2bus.respLayer1.occupancy        1516189111                       # Layer occupancy (ticks)
system.tol2bus.respLayer1.utilization             0.9                       # Layer utilization (%)

---------- End Simulation Statistics   ----------
