
---------- Begin Simulation Statistics ----------
sim_seconds                                  0.000135                       # Number of seconds simulated
sim_ticks                                   135493281                       # Number of ticks simulated
final_tick                                  135493281                       # Number of ticks from beginning of simulation (restored from checkpoints and never reset)
sim_freq                                 1000000000000                       # Frequency of simulated ticks
host_inst_rate                                  77066                       # Simulator instruction rate (inst/s)
host_op_rate                                    89699                       # Simulator op (including micro ops) rate (op/s)
host_tick_rate                              148278373                       # Simulator tick rate (ticks/s)
host_mem_usage                                1120212                       # Number of bytes of host memory used
host_seconds                                     0.91                       # Real time elapsed on the host
sim_insts                                       70418                       # Number of instructions simulated
sim_ops                                         81963                       # Number of ops (including micro ops) simulated
system.voltage_domain.voltage                       1                       # Voltage in Volts
system.clk_domain.clock                          1000                       # Clock period in ticks
system.mem_ctrls.pwrStateResidencyTicks::UNDEFINED    135493281                       # Cumulative time (in ticks) in various power states
system.mem_ctrls.bytes_read::cpu.inst           32320                       # Number of bytes read from this memory
system.mem_ctrls.bytes_read::cpu.data           12736                       # Number of bytes read from this memory
system.mem_ctrls.bytes_read::l2.prefetcher         7424                       # Number of bytes read from this memory
system.mem_ctrls.bytes_read::total              52480                       # Number of bytes read from this memory
system.mem_ctrls.bytes_inst_read::cpu.inst        32320                       # Number of instructions bytes read from this memory
system.mem_ctrls.bytes_inst_read::total         32320                       # Number of instructions bytes read from this memory
system.mem_ctrls.num_reads::cpu.inst              505                       # Number of read requests responded to by this memory
system.mem_ctrls.num_reads::cpu.data              199                       # Number of read requests responded to by this memory
system.mem_ctrls.num_reads::l2.prefetcher          116                       # Number of read requests responded to by this memory
system.mem_ctrls.num_reads::total                 820                       # Number of read requests responded to by this memory
system.mem_ctrls.bw_read::cpu.inst          238535813                       # Total read bandwidth from this memory (bytes/s)
system.mem_ctrls.bw_read::cpu.data           93997281                       # Total read bandwidth from this memory (bytes/s)
system.mem_ctrls.bw_read::l2.prefetcher      54792385                       # Total read bandwidth from this memory (bytes/s)
system.mem_ctrls.bw_read::total             387325479                       # Total read bandwidth from this memory (bytes/s)
system.mem_ctrls.bw_inst_read::cpu.inst     238535813                       # Instruction read bandwidth from this memory (bytes/s)
system.mem_ctrls.bw_inst_read::total        238535813                       # Instruction read bandwidth from this memory (bytes/s)
system.mem_ctrls.bw_total::cpu.inst         238535813                       # Total bandwidth to/from this memory (bytes/s)
system.mem_ctrls.bw_total::cpu.data          93997281                       # Total bandwidth to/from this memory (bytes/s)
system.mem_ctrls.bw_total::l2.prefetcher     54792385                       # Total bandwidth to/from this memory (bytes/s)
system.mem_ctrls.bw_total::total            387325479                       # Total bandwidth to/from this memory (bytes/s)
system.mem_ctrls.readReqs                         820                       # Number of read requests accepted
system.mem_ctrls.writeReqs                          0                       # Number of write requests accepted
system.mem_ctrls.readBursts                      1640                       # Number of DRAM read bursts, including those serviced by the write queue
system.mem_ctrls.writeBursts                        0                       # Number of DRAM write bursts, including those merged in the write queue
system.mem_ctrls.bytesReadDRAM                  52480                       # Total number of bytes read from DRAM
system.mem_ctrls.bytesReadWrQ                       0                       # Total number of bytes read from write queue
system.mem_ctrls.bytesWritten                       0                       # Total number of bytes written to DRAM
system.mem_ctrls.bytesReadSys                   52480                       # Total read bytes from the system interface side
system.mem_ctrls.bytesWrittenSys                    0                       # Total written bytes from the system interface side
system.mem_ctrls.servicedByWrQ                      0                       # Number of DRAM read bursts serviced by the write queue
system.mem_ctrls.mergedWrBursts                     0                       # Number of DRAM write bursts merged with an existing one
system.mem_ctrls.neitherReadNorWriteReqs            0                       # Number of requests that are neither read nor write
system.mem_ctrls.perBankRdBursts::0               266                       # Per bank write bursts
system.mem_ctrls.perBankRdBursts::1               288                       # Per bank write bursts
system.mem_ctrls.perBankRdBursts::2               206                       # Per bank write bursts
system.mem_ctrls.perBankRdBursts::3               350                       # Per bank write bursts
system.mem_ctrls.perBankRdBursts::4               224                       # Per bank write bursts
system.mem_ctrls.perBankRdBursts::5               136                       # Per bank write bursts
system.mem_ctrls.perBankRdBursts::6                58                       # Per bank write bursts
system.mem_ctrls.perBankRdBursts::7               112                       # Per bank write bursts
system.mem_ctrls.perBankWrBursts::0                 0                       # Per bank write bursts
system.mem_ctrls.perBankWrBursts::1                 0                       # Per bank write bursts
system.mem_ctrls.perBankWrBursts::2                 0                       # Per bank write bursts
system.mem_ctrls.perBankWrBursts::3                 0                       # Per bank write bursts
system.mem_ctrls.perBankWrBursts::4                 0                       # Per bank write bursts
system.mem_ctrls.perBankWrBursts::5                 0                       # Per bank write bursts
system.mem_ctrls.perBankWrBursts::6                 0                       # Per bank write bursts
system.mem_ctrls.perBankWrBursts::7                 0                       # Per bank write bursts
system.mem_ctrls.numRdRetry                         0                       # Number of times read queue was full causing retry
system.mem_ctrls.numWrRetry                         0                       # Number of times write queue was full causing retry
system.mem_ctrls.totGap                     135363333                       # Total gap between requests
system.mem_ctrls.readPktSize::0                     0                       # Read request sizes (log2)
system.mem_ctrls.readPktSize::1                     0                       # Read request sizes (log2)
system.mem_ctrls.readPktSize::2                     0                       # Read request sizes (log2)
system.mem_ctrls.readPktSize::3                     0                       # Read request sizes (log2)
system.mem_ctrls.readPktSize::4                     0                       # Read request sizes (log2)
system.mem_ctrls.readPktSize::5                  1640                       # Read request sizes (log2)
system.mem_ctrls.writePktSize::0                    0                       # Write request sizes (log2)
system.mem_ctrls.writePktSize::1                    0                       # Write request sizes (log2)
system.mem_ctrls.writePktSize::2                    0                       # Write request sizes (log2)
system.mem_ctrls.writePktSize::3                    0                       # Write request sizes (log2)
system.mem_ctrls.writePktSize::4                    0                       # Write request sizes (log2)
system.mem_ctrls.writePktSize::5                    0                       # Write request sizes (log2)
system.mem_ctrls.rdQLenPdf::0                     554                       # What read queue length does an incoming req see
system.mem_ctrls.rdQLenPdf::1                     562                       # What read queue length does an incoming req see
system.mem_ctrls.rdQLenPdf::2                     189                       # What read queue length does an incoming req see
system.mem_ctrls.rdQLenPdf::3                     182                       # What read queue length does an incoming req see
system.mem_ctrls.rdQLenPdf::4                      40                       # What read queue length does an incoming req see
system.mem_ctrls.rdQLenPdf::5                      39                       # What read queue length does an incoming req see
system.mem_ctrls.rdQLenPdf::6                      11                       # What read queue length does an incoming req see
system.mem_ctrls.rdQLenPdf::7                      11                       # What read queue length does an incoming req see
system.mem_ctrls.rdQLenPdf::8                       8                       # What read queue length does an incoming req see
system.mem_ctrls.rdQLenPdf::9                       8                       # What read queue length does an incoming req see
system.mem_ctrls.rdQLenPdf::10                      5                       # What read queue length does an incoming req see
system.mem_ctrls.rdQLenPdf::11                      5                       # What read queue length does an incoming req see
system.mem_ctrls.rdQLenPdf::12                      5                       # What read queue length does an incoming req see
system.mem_ctrls.rdQLenPdf::13                      5                       # What read queue length does an incoming req see
system.mem_ctrls.rdQLenPdf::14                      3                       # What read queue length does an incoming req see
system.mem_ctrls.rdQLenPdf::15                      3                       # What read queue length does an incoming req see
system.mem_ctrls.rdQLenPdf::16                      4                       # What read queue length does an incoming req see
system.mem_ctrls.rdQLenPdf::17                      4                       # What read queue length does an incoming req see
system.mem_ctrls.rdQLenPdf::18                      1                       # What read queue length does an incoming req see
system.mem_ctrls.rdQLenPdf::19                      1                       # What read queue length does an incoming req see
system.mem_ctrls.rdQLenPdf::20                      0                       # What read queue length does an incoming req see
system.mem_ctrls.rdQLenPdf::21                      0                       # What read queue length does an incoming req see
system.mem_ctrls.rdQLenPdf::22                      0                       # What read queue length does an incoming req see
system.mem_ctrls.rdQLenPdf::23                      0                       # What read queue length does an incoming req see
system.mem_ctrls.rdQLenPdf::24                      0                       # What read queue length does an incoming req see
system.mem_ctrls.rdQLenPdf::25                      0                       # What read queue length does an incoming req see
system.mem_ctrls.rdQLenPdf::26                      0                       # What read queue length does an incoming req see
system.mem_ctrls.rdQLenPdf::27                      0                       # What read queue length does an incoming req see
system.mem_ctrls.rdQLenPdf::28                      0                       # What read queue length does an incoming req see
system.mem_ctrls.rdQLenPdf::29                      0                       # What read queue length does an incoming req see
system.mem_ctrls.rdQLenPdf::30                      0                       # What read queue length does an incoming req see
system.mem_ctrls.rdQLenPdf::31                      0                       # What read queue length does an incoming req see
system.mem_ctrls.wrQLenPdf::0                       0                       # What write queue length does an incoming req see
system.mem_ctrls.wrQLenPdf::1                       0                       # What write queue length does an incoming req see
system.mem_ctrls.wrQLenPdf::2                       0                       # What write queue length does an incoming req see
system.mem_ctrls.wrQLenPdf::3                       0                       # What write queue length does an incoming req see
system.mem_ctrls.wrQLenPdf::4                       0                       # What write queue length does an incoming req see
system.mem_ctrls.wrQLenPdf::5                       0                       # What write queue length does an incoming req see
system.mem_ctrls.wrQLenPdf::6                       0                       # What write queue length does an incoming req see
system.mem_ctrls.wrQLenPdf::7                       0                       # What write queue length does an incoming req see
system.mem_ctrls.wrQLenPdf::8                       0                       # What write queue length does an incoming req see
system.mem_ctrls.wrQLenPdf::9                       0                       # What write queue length does an incoming req see
system.mem_ctrls.wrQLenPdf::10                      0                       # What write queue length does an incoming req see
system.mem_ctrls.wrQLenPdf::11                      0                       # What write queue length does an incoming req see
system.mem_ctrls.wrQLenPdf::12                      0                       # What write queue length does an incoming req see
system.mem_ctrls.wrQLenPdf::13                      0                       # What write queue length does an incoming req see
system.mem_ctrls.wrQLenPdf::14                      0                       # What write queue length does an incoming req see
system.mem_ctrls.wrQLenPdf::15                      0                       # What write queue length does an incoming req see
system.mem_ctrls.wrQLenPdf::16                      0                       # What write queue length does an incoming req see
system.mem_ctrls.wrQLenPdf::17                      0                       # What write queue length does an incoming req see
system.mem_ctrls.wrQLenPdf::18                      0                       # What write queue length does an incoming req see
system.mem_ctrls.wrQLenPdf::19                      0                       # What write queue length does an incoming req see
system.mem_ctrls.wrQLenPdf::20                      0                       # What write queue length does an incoming req see
system.mem_ctrls.wrQLenPdf::21                      0                       # What write queue length does an incoming req see
system.mem_ctrls.wrQLenPdf::22                      0                       # What write queue length does an incoming req see
system.mem_ctrls.wrQLenPdf::23                      0                       # What write queue length does an incoming req see
system.mem_ctrls.wrQLenPdf::24                      0                       # What write queue length does an incoming req see
system.mem_ctrls.wrQLenPdf::25                      0                       # What write queue length does an incoming req see
system.mem_ctrls.wrQLenPdf::26                      0                       # What write queue length does an incoming req see
system.mem_ctrls.wrQLenPdf::27                      0                       # What write queue length does an incoming req see
system.mem_ctrls.wrQLenPdf::28                      0                       # What write queue length does an incoming req see
system.mem_ctrls.wrQLenPdf::29                      0                       # What write queue length does an incoming req see
system.mem_ctrls.wrQLenPdf::30                      0                       # What write queue length does an incoming req see
system.mem_ctrls.wrQLenPdf::31                      0                       # What write queue length does an incoming req see
system.mem_ctrls.wrQLenPdf::32                      0                       # What write queue length does an incoming req see
system.mem_ctrls.wrQLenPdf::33                      0                       # What write queue length does an incoming req see
system.mem_ctrls.wrQLenPdf::34                      0                       # What write queue length does an incoming req see
system.mem_ctrls.wrQLenPdf::35                      0                       # What write queue length does an incoming req see
system.mem_ctrls.wrQLenPdf::36                      0                       # What write queue length does an incoming req see
system.mem_ctrls.wrQLenPdf::37                      0                       # What write queue length does an incoming req see
system.mem_ctrls.wrQLenPdf::38                      0                       # What write queue length does an incoming req see
system.mem_ctrls.wrQLenPdf::39                      0                       # What write queue length does an incoming req see
system.mem_ctrls.wrQLenPdf::40                      0                       # What write queue length does an incoming req see
system.mem_ctrls.wrQLenPdf::41                      0                       # What write queue length does an incoming req see
system.mem_ctrls.wrQLenPdf::42                      0                       # What write queue length does an incoming req see
system.mem_ctrls.wrQLenPdf::43                      0                       # What write queue length does an incoming req see
system.mem_ctrls.wrQLenPdf::44                      0                       # What write queue length does an incoming req see
system.mem_ctrls.wrQLenPdf::45                      0                       # What write queue length does an incoming req see
system.mem_ctrls.wrQLenPdf::46                      0                       # What write queue length does an incoming req see
system.mem_ctrls.wrQLenPdf::47                      0                       # What write queue length does an incoming req see
system.mem_ctrls.wrQLenPdf::48                      0                       # What write queue length does an incoming req see
system.mem_ctrls.wrQLenPdf::49                      0                       # What write queue length does an incoming req see
system.mem_ctrls.wrQLenPdf::50                      0                       # What write queue length does an incoming req see
system.mem_ctrls.wrQLenPdf::51                      0                       # What write queue length does an incoming req see
system.mem_ctrls.wrQLenPdf::52                      0                       # What write queue length does an incoming req see
system.mem_ctrls.wrQLenPdf::53                      0                       # What write queue length does an incoming req see
system.mem_ctrls.wrQLenPdf::54                      0                       # What write queue length does an incoming req see
system.mem_ctrls.wrQLenPdf::55                      0                       # What write queue length does an incoming req see
system.mem_ctrls.wrQLenPdf::56                      0                       # What write queue length does an incoming req see
system.mem_ctrls.wrQLenPdf::57                      0                       # What write queue length does an incoming req see
system.mem_ctrls.wrQLenPdf::58                      0                       # What write queue length does an incoming req see
system.mem_ctrls.wrQLenPdf::59                      0                       # What write queue length does an incoming req see
system.mem_ctrls.wrQLenPdf::60                      0                       # What write queue length does an incoming req see
system.mem_ctrls.wrQLenPdf::61                      0                       # What write queue length does an incoming req see
system.mem_ctrls.wrQLenPdf::62                      0                       # What write queue length does an incoming req see
system.mem_ctrls.wrQLenPdf::63                      0                       # What write queue length does an incoming req see
system.mem_ctrls.bytesPerActivate::samples          283                       # Bytes accessed per row activation
system.mem_ctrls.bytesPerActivate::mean    184.537102                       # Bytes accessed per row activation
system.mem_ctrls.bytesPerActivate::gmean   134.989899                       # Bytes accessed per row activation
system.mem_ctrls.bytesPerActivate::stdev   151.473312                       # Bytes accessed per row activation
system.mem_ctrls.bytesPerActivate::0-63             1      0.35%      0.35% # Bytes accessed per row activation
system.mem_ctrls.bytesPerActivate::64-127          125     44.17%     44.52% # Bytes accessed per row activation
system.mem_ctrls.bytesPerActivate::128-191           44     15.55%     60.07% # Bytes accessed per row activation
system.mem_ctrls.bytesPerActivate::192-255           28      9.89%     69.96% # Bytes accessed per row activation
system.mem_ctrls.bytesPerActivate::256-319           19      6.71%     76.68% # Bytes accessed per row activation
system.mem_ctrls.bytesPerActivate::320-383           20      7.07%     83.75% # Bytes accessed per row activation
system.mem_ctrls.bytesPerActivate::384-447            8      2.83%     86.57% # Bytes accessed per row activation
system.mem_ctrls.bytesPerActivate::448-511           10      3.53%     90.11% # Bytes accessed per row activation
system.mem_ctrls.bytesPerActivate::512-575           28      9.89%    100.00% # Bytes accessed per row activation
system.mem_ctrls.bytesPerActivate::total          283                       # Bytes accessed per row activation
system.mem_ctrls.totQLat                     43754164                       # Total ticks spent queuing
system.mem_ctrls.totMemAccLat                76554164                       # Total ticks spent from burst creation until serviced by the DRAM
system.mem_ctrls.totBusLat                    8200000                       # Total ticks spent in databus transfers
system.mem_ctrls.avgQLat                     26679.37                       # Average queueing delay per DRAM burst
system.mem_ctrls.avgBusLat                    5000.00                       # Average bus latency per DRAM burst
system.mem_ctrls.avgMemAccLat                46679.37                       # Average memory access latency per DRAM burst
system.mem_ctrls.avgRdBW                       387.33                       # Average DRAM read bandwidth in MiByte/s
system.mem_ctrls.avgWrBW                         0.00                       # Average achieved write bandwidth in MiByte/s
system.mem_ctrls.avgRdBWSys                    387.33                       # Average system read bandwidth in MiByte/s
system.mem_ctrls.avgWrBWSys                      0.00                       # Average system write bandwidth in MiByte/s
system.mem_ctrls.peakBW                       6400.00                       # Theoretical peak bandwidth in MiByte/s
system.mem_ctrls.busUtil                         6.05                       # Data bus utilization in percentage
system.mem_ctrls.busUtilRead                     6.05                       # Data bus utilization in percentage for reads
system.mem_ctrls.busUtilWrite                    0.00                       # Data bus utilization in percentage for writes
system.mem_ctrls.avgRdQLen                       2.75                       # Average read queue length when enqueuing
system.mem_ctrls.avgWrQLen                       0.00                       # Average write queue length when enqueuing
system.mem_ctrls.readRowHits                     1355                       # Number of row buffer hits during reads
system.mem_ctrls.writeRowHits                       0                       # Number of row buffer hits during writes
system.mem_ctrls.readRowHitRate                 82.62                       # Row buffer hit rate for reads
system.mem_ctrls.writeRowHitRate                  nan                       # Row buffer hit rate for writes
system.mem_ctrls.avgGap                     165077.24                       # Average gap between requests
system.mem_ctrls.pageHitRate                    82.62                       # Row buffer hit rate, read and write combined
system.mem_ctrls_0.actEnergy                   508725                       # Energy for activate commands per rank (pJ)
system.mem_ctrls_0.preEnergy             266246.400000                       # Energy for precharge commands per rank (pJ)
system.mem_ctrls_0.readEnergy                 1928640                       # Energy for read commands per rank (pJ)
system.mem_ctrls_0.writeEnergy                      0                       # Energy for write commands per rank (pJ)
system.mem_ctrls_0.refreshEnergy               822120                       # Energy for refresh commands per rank (pJ)
system.mem_ctrls_0.actBackEnergy         1418857.500000                       # Energy for active background per rank (pJ)
system.mem_ctrls_0.preBackEnergy         61485.600000                       # Energy for precharge background per rank (pJ)
system.mem_ctrls_0.actPowerDownEnergy    1274754.450000                       # Energy for active power-down per rank (pJ)
system.mem_ctrls_0.prePowerDownEnergy    42187.500000                       # Energy for precharge power-down per rank (pJ)
system.mem_ctrls_0.selfRefreshEnergy     74626.275000                       # Energy for self refresh per rank (pJ)
system.mem_ctrls_0.totalEnergy           6403083.225000                       # Total energy per rank (pJ)
system.mem_ctrls_0.averagePower             47.257570                       # Core power per rank (mW)
system.mem_ctrls_0.totalIdleTime            101457702                       # Total Idle time Per DRAM Rank
system.mem_ctrls_0.memoryStateTime::IDLE       494162                       # Time in different power states
system.mem_ctrls_0.memoryStateTime::REF       4435000                       # Time in different power states
system.mem_ctrls_0.memoryStateTime::SREF      8716410                       # Time in different power states
system.mem_ctrls_0.memoryStateTime::PRE_PDN     11715364                       # Time in different power states
system.mem_ctrls_0.memoryStateTime::ACT      29056631                       # Time in different power states
system.mem_ctrls_0.memoryStateTime::ACT_PDN     81075714                       # Time in different power states
system.pwrStateResidencyTicks::UNDEFINED    135493281                       # Cumulative time (in ticks) in various power states
system.cpu.branchPred.lookups                   18309                       # Number of BP lookups
system.cpu.branchPred.condPredicted              9208                       # Number of conditional branches predicted
system.cpu.branchPred.condIncorrect              1943                       # Number of conditional branches incorrect
system.cpu.branchPred.BTBLookups                 8144                       # Number of BTB lookups
system.cpu.branchPred.BTBHits                    5839                       # Number of BTB hits
system.cpu.branchPred.BTBCorrect                    0                       # Number of correct BTB predictions (this stat may not work properly.
system.cpu.branchPred.BTBHitPct             71.696955                       # BTB Hit Percentage
system.cpu.branchPred.usedRAS                    3293                       # Number of times the RAS was used to get a target.
system.cpu.branchPred.RASInCorrect                786                       # Number of incorrect RAS predictions.
system.cpu.branchPred.indirectLookups             821                       # Number of indirect predictor lookups.
system.cpu.branchPred.indirectHits                443                       # Number of indirect target hits.
system.cpu.branchPred.indirectMisses              378                       # Number of indirect misses.
system.cpu.branchPredindirectMispredicted          106                       # Number of mispredicted indirect branches.
system.cpu_voltage_domain.voltage                   1                       # Voltage in Volts
system.cpu_clk_domain.clock                       833                       # Clock period in ticks
system.cpu.dstage2_mmu.stage2_tlb.walker.pwrStateResidencyTicks::UNDEFINED    135493281                       # Cumulative time (in ticks) in various power states
system.cpu.dstage2_mmu.stage2_tlb.walker.walks            0                       # Table walker walks requested
system.cpu.dstage2_mmu.stage2_tlb.walker.walkRequestOrigin_Requested::Data            0                       # Table walker requests started/completed, data/inst
system.cpu.dstage2_mmu.stage2_tlb.walker.walkRequestOrigin_Requested::Inst            0                       # Table walker requests started/completed, data/inst
system.cpu.dstage2_mmu.stage2_tlb.walker.walkRequestOrigin_Requested::total            0                       # Table walker requests started/completed, data/inst
system.cpu.dstage2_mmu.stage2_tlb.walker.walkRequestOrigin_Completed::Data            0                       # Table walker requests started/completed, data/inst
system.cpu.dstage2_mmu.stage2_tlb.walker.walkRequestOrigin_Completed::Inst            0                       # Table walker requests started/completed, data/inst
system.cpu.dstage2_mmu.stage2_tlb.walker.walkRequestOrigin_Completed::total            0                       # Table walker requests started/completed, data/inst
system.cpu.dstage2_mmu.stage2_tlb.walker.walkRequestOrigin::total            0                       # Table walker requests started/completed, data/inst
system.cpu.dstage2_mmu.stage2_tlb.inst_hits            0                       # ITB inst hits
system.cpu.dstage2_mmu.stage2_tlb.inst_misses            0                       # ITB inst misses
system.cpu.dstage2_mmu.stage2_tlb.read_hits            0                       # DTB read hits
system.cpu.dstage2_mmu.stage2_tlb.read_misses            0                       # DTB read misses
system.cpu.dstage2_mmu.stage2_tlb.write_hits            0                       # DTB write hits
system.cpu.dstage2_mmu.stage2_tlb.write_misses            0                       # DTB write misses
system.cpu.dstage2_mmu.stage2_tlb.flush_tlb            0                       # Number of times complete TLB was flushed
system.cpu.dstage2_mmu.stage2_tlb.flush_tlb_mva            0                       # Number of times TLB was flushed by MVA
system.cpu.dstage2_mmu.stage2_tlb.flush_tlb_mva_asid            0                       # Number of times TLB was flushed by MVA & ASID
system.cpu.dstage2_mmu.stage2_tlb.flush_tlb_asid            0                       # Number of times TLB was flushed by ASID
system.cpu.dstage2_mmu.stage2_tlb.flush_entries            0                       # Number of entries that have been flushed from TLB
system.cpu.dstage2_mmu.stage2_tlb.align_faults            0                       # Number of TLB faults due to alignment restrictions
system.cpu.dstage2_mmu.stage2_tlb.prefetch_faults            0                       # Number of TLB faults due to prefetch
system.cpu.dstage2_mmu.stage2_tlb.domain_faults            0                       # Number of TLB faults due to domain restrictions
system.cpu.dstage2_mmu.stage2_tlb.perms_faults            0                       # Number of TLB faults due to permissions restrictions
system.cpu.dstage2_mmu.stage2_tlb.read_accesses            0                       # DTB read accesses
system.cpu.dstage2_mmu.stage2_tlb.write_accesses            0                       # DTB write accesses
system.cpu.dstage2_mmu.stage2_tlb.inst_accesses            0                       # ITB inst accesses
system.cpu.dstage2_mmu.stage2_tlb.hits              0                       # DTB hits
system.cpu.dstage2_mmu.stage2_tlb.misses            0                       # DTB misses
system.cpu.dstage2_mmu.stage2_tlb.accesses            0                       # DTB accesses
system.cpu.dtb.walker.pwrStateResidencyTicks::UNDEFINED    135493281                       # Cumulative time (in ticks) in various power states
system.cpu.dtb.walker.walks                         0                       # Table walker walks requested
system.cpu.dtb.walker.walkRequestOrigin_Requested::Data            0                       # Table walker requests started/completed, data/inst
system.cpu.dtb.walker.walkRequestOrigin_Requested::Inst            0                       # Table walker requests started/completed, data/inst
system.cpu.dtb.walker.walkRequestOrigin_Requested::total            0                       # Table walker requests started/completed, data/inst
system.cpu.dtb.walker.walkRequestOrigin_Completed::Data            0                       # Table walker requests started/completed, data/inst
system.cpu.dtb.walker.walkRequestOrigin_Completed::Inst            0                       # Table walker requests started/completed, data/inst
system.cpu.dtb.walker.walkRequestOrigin_Completed::total            0                       # Table walker requests started/completed, data/inst
system.cpu.dtb.walker.walkRequestOrigin::total            0                       # Table walker requests started/completed, data/inst
system.cpu.dtb.inst_hits                            0                       # ITB inst hits
system.cpu.dtb.inst_misses                          0                       # ITB inst misses
system.cpu.dtb.read_hits                            0                       # DTB read hits
system.cpu.dtb.read_misses                          0                       # DTB read misses
system.cpu.dtb.write_hits                           0                       # DTB write hits
system.cpu.dtb.write_misses                         0                       # DTB write misses
system.cpu.dtb.flush_tlb                            0                       # Number of times complete TLB was flushed
system.cpu.dtb.flush_tlb_mva                        0                       # Number of times TLB was flushed by MVA
system.cpu.dtb.flush_tlb_mva_asid                   0                       # Number of times TLB was flushed by MVA & ASID
system.cpu.dtb.flush_tlb_asid                       0                       # Number of times TLB was flushed by ASID
system.cpu.dtb.flush_entries                        0                       # Number of entries that have been flushed from TLB
system.cpu.dtb.align_faults                         0                       # Number of TLB faults due to alignment restrictions
system.cpu.dtb.prefetch_faults                      0                       # Number of TLB faults due to prefetch
system.cpu.dtb.domain_faults                        0                       # Number of TLB faults due to domain restrictions
system.cpu.dtb.perms_faults                         0                       # Number of TLB faults due to permissions restrictions
system.cpu.dtb.read_accesses                        0                       # DTB read accesses
system.cpu.dtb.write_accesses                       0                       # DTB write accesses
system.cpu.dtb.inst_accesses                        0                       # ITB inst accesses
system.cpu.dtb.hits                                 0                       # DTB hits
system.cpu.dtb.misses                               0                       # DTB misses
system.cpu.dtb.accesses                             0                       # DTB accesses
system.cpu.istage2_mmu.stage2_tlb.walker.pwrStateResidencyTicks::UNDEFINED    135493281                       # Cumulative time (in ticks) in various power states
system.cpu.istage2_mmu.stage2_tlb.walker.walks            0                       # Table walker walks requested
system.cpu.istage2_mmu.stage2_tlb.walker.walkRequestOrigin_Requested::Data            0                       # Table walker requests started/completed, data/inst
system.cpu.istage2_mmu.stage2_tlb.walker.walkRequestOrigin_Requested::Inst            0                       # Table walker requests started/completed, data/inst
system.cpu.istage2_mmu.stage2_tlb.walker.walkRequestOrigin_Requested::total            0                       # Table walker requests started/completed, data/inst
system.cpu.istage2_mmu.stage2_tlb.walker.walkRequestOrigin_Completed::Data            0                       # Table walker requests started/completed, data/inst
system.cpu.istage2_mmu.stage2_tlb.walker.walkRequestOrigin_Completed::Inst            0                       # Table walker requests started/completed, data/inst
system.cpu.istage2_mmu.stage2_tlb.walker.walkRequestOrigin_Completed::total            0                       # Table walker requests started/completed, data/inst
system.cpu.istage2_mmu.stage2_tlb.walker.walkRequestOrigin::total            0                       # Table walker requests started/completed, data/inst
system.cpu.istage2_mmu.stage2_tlb.inst_hits            0                       # ITB inst hits
system.cpu.istage2_mmu.stage2_tlb.inst_misses            0                       # ITB inst misses
system.cpu.istage2_mmu.stage2_tlb.read_hits            0                       # DTB read hits
system.cpu.istage2_mmu.stage2_tlb.read_misses            0                       # DTB read misses
system.cpu.istage2_mmu.stage2_tlb.write_hits            0                       # DTB write hits
system.cpu.istage2_mmu.stage2_tlb.write_misses            0                       # DTB write misses
system.cpu.istage2_mmu.stage2_tlb.flush_tlb            0                       # Number of times complete TLB was flushed
system.cpu.istage2_mmu.stage2_tlb.flush_tlb_mva            0                       # Number of times TLB was flushed by MVA
system.cpu.istage2_mmu.stage2_tlb.flush_tlb_mva_asid            0                       # Number of times TLB was flushed by MVA & ASID
system.cpu.istage2_mmu.stage2_tlb.flush_tlb_asid            0                       # Number of times TLB was flushed by ASID
system.cpu.istage2_mmu.stage2_tlb.flush_entries            0                       # Number of entries that have been flushed from TLB
system.cpu.istage2_mmu.stage2_tlb.align_faults            0                       # Number of TLB faults due to alignment restrictions
system.cpu.istage2_mmu.stage2_tlb.prefetch_faults            0                       # Number of TLB faults due to prefetch
system.cpu.istage2_mmu.stage2_tlb.domain_faults            0                       # Number of TLB faults due to domain restrictions
system.cpu.istage2_mmu.stage2_tlb.perms_faults            0                       # Number of TLB faults due to permissions restrictions
system.cpu.istage2_mmu.stage2_tlb.read_accesses            0                       # DTB read accesses
system.cpu.istage2_mmu.stage2_tlb.write_accesses            0                       # DTB write accesses
system.cpu.istage2_mmu.stage2_tlb.inst_accesses            0                       # ITB inst accesses
system.cpu.istage2_mmu.stage2_tlb.hits              0                       # DTB hits
system.cpu.istage2_mmu.stage2_tlb.misses            0                       # DTB misses
system.cpu.istage2_mmu.stage2_tlb.accesses            0                       # DTB accesses
system.cpu.itb.walker.pwrStateResidencyTicks::UNDEFINED    135493281                       # Cumulative time (in ticks) in various power states
system.cpu.itb.walker.walks                         0                       # Table walker walks requested
system.cpu.itb.walker.walkRequestOrigin_Requested::Data            0                       # Table walker requests started/completed, data/inst
system.cpu.itb.walker.walkRequestOrigin_Requested::Inst            0                       # Table walker requests started/completed, data/inst
system.cpu.itb.walker.walkRequestOrigin_Requested::total            0                       # Table walker requests started/completed, data/inst
system.cpu.itb.walker.walkRequestOrigin_Completed::Data            0                       # Table walker requests started/completed, data/inst
system.cpu.itb.walker.walkRequestOrigin_Completed::Inst            0                       # Table walker requests started/completed, data/inst
system.cpu.itb.walker.walkRequestOrigin_Completed::total            0                       # Table walker requests started/completed, data/inst
system.cpu.itb.walker.walkRequestOrigin::total            0                       # Table walker requests started/completed, data/inst
system.cpu.itb.inst_hits                            0                       # ITB inst hits
system.cpu.itb.inst_misses                          0                       # ITB inst misses
system.cpu.itb.read_hits                            0                       # DTB read hits
system.cpu.itb.read_misses                          0                       # DTB read misses
system.cpu.itb.write_hits                           0                       # DTB write hits
system.cpu.itb.write_misses                         0                       # DTB write misses
system.cpu.itb.flush_tlb                            0                       # Number of times complete TLB was flushed
system.cpu.itb.flush_tlb_mva                        0                       # Number of times TLB was flushed by MVA
system.cpu.itb.flush_tlb_mva_asid                   0                       # Number of times TLB was flushed by MVA & ASID
system.cpu.itb.flush_tlb_asid                       0                       # Number of times TLB was flushed by ASID
system.cpu.itb.flush_entries                        0                       # Number of entries that have been flushed from TLB
system.cpu.itb.align_faults                         0                       # Number of TLB faults due to alignment restrictions
system.cpu.itb.prefetch_faults                      0                       # Number of TLB faults due to prefetch
system.cpu.itb.domain_faults                        0                       # Number of TLB faults due to domain restrictions
system.cpu.itb.perms_faults                         0                       # Number of TLB faults due to permissions restrictions
system.cpu.itb.read_accesses                        0                       # DTB read accesses
system.cpu.itb.write_accesses                       0                       # DTB write accesses
system.cpu.itb.inst_accesses                        0                       # ITB inst accesses
system.cpu.itb.hits                                 0                       # DTB hits
system.cpu.itb.misses                               0                       # DTB misses
system.cpu.itb.accesses                             0                       # DTB accesses
system.cpu.workload.numSyscalls                    11                       # Number of system calls
system.cpu.pwrStateResidencyTicks::ON       135493281                       # Cumulative time (in ticks) in various power states
system.cpu.numCycles                           162658                       # number of cpu cycles simulated
system.cpu.numWorkItemsStarted                      0                       # number of work items this cpu started
system.cpu.numWorkItemsCompleted                    0                       # number of work items this cpu completed
system.cpu.fetch.icacheStallCycles              12366                       # Number of cycles fetch is stalled on an Icache miss
system.cpu.fetch.Insts                          97021                       # Number of instructions fetch has processed
system.cpu.fetch.Branches                       18309                       # Number of branches that fetch encountered
system.cpu.fetch.predictedBranches               9575                       # Number of branches that fetch has predicted taken
system.cpu.fetch.Cycles                        113864                       # Number of cycles fetch has run and was not squashing or blocked
system.cpu.fetch.SquashCycles                    3978                       # Number of cycles fetch has spent squashing
system.cpu.fetch.MiscStallCycles                   41                       # Number of cycles fetch has spent waiting on interrupts, or bad addresses, or out of MSHRs
system.cpu.fetch.PendingTrapStallCycles           391                       # Number of stall cycles due to pending traps
system.cpu.fetch.IcacheWaitRetryStallCycles          362                       # Number of stall cycles due to full MSHR
system.cpu.fetch.CacheLines                     98746                       # Number of cache lines fetched
system.cpu.fetch.IcacheSquashes                   267                       # Number of outstanding Icache misses that were squashed
system.cpu.fetch.rateDist::samples             129013                       # Number of instructions fetched each cycle (Total)
system.cpu.fetch.rateDist::mean              0.885570                       # Number of instructions fetched each cycle (Total)
system.cpu.fetch.rateDist::stdev             0.511151                       # Number of instructions fetched each cycle (Total)
system.cpu.fetch.rateDist::underflows               0      0.00%      0.00% # Number of instructions fetched each cycle (Total)
system.cpu.fetch.rateDist::0                    25080     19.44%     19.44% # Number of instructions fetched each cycle (Total)
system.cpu.fetch.rateDist::1                    93616     72.56%     92.00% # Number of instructions fetched each cycle (Total)
system.cpu.fetch.rateDist::2                    10317      8.00%    100.00% # Number of instructions fetched each cycle (Total)
system.cpu.fetch.rateDist::overflows                0      0.00%    100.00% # Number of instructions fetched each cycle (Total)
system.cpu.fetch.rateDist::min_value                0                       # Number of instructions fetched each cycle (Total)
system.cpu.fetch.rateDist::max_value                2                       # Number of instructions fetched each cycle (Total)
system.cpu.fetch.rateDist::total               129013                       # Number of instructions fetched each cycle (Total)
system.cpu.fetch.branchRate                  0.112561                       # Number of branch fetches per cycle
system.cpu.fetch.rate                        0.596472                       # Number of inst fetches per cycle
system.cpu.decode.IdleCycles                    20180                       # Number of cycles decode is idle
system.cpu.decode.BlockedCycles                 47066                       # Number of cycles decode is blocked
system.cpu.decode.RunCycles                     48956                       # Number of cycles decode is running
system.cpu.decode.UnblockCycles                 11308                       # Number of cycles decode is unblocking
system.cpu.decode.SquashCycles                   1503                       # Number of cycles decode is squashing
system.cpu.decode.BranchResolved                 5436                       # Number of times decode resolved a branch
system.cpu.decode.BranchMispred                   512                       # Number of times decode detected a branch misprediction
system.cpu.decode.DecodedInsts                  92267                       # Number of instructions handled by decode
system.cpu.decode.SquashedInsts                  3933                       # Number of squashed instructions handled by decode
system.cpu.rename.SquashCycles                   1503                       # Number of cycles rename is squashing
system.cpu.rename.IdleCycles                    31944                       # Number of cycles rename is idle
system.cpu.rename.BlockCycles                    8521                       # Number of cycles rename is blocking
system.cpu.rename.serializeStallCycles           7880                       # count of cycles rename stalled for serializing inst
system.cpu.rename.RunCycles                     47831                       # Number of cycles rename is running
system.cpu.rename.UnblockCycles                 31334                       # Number of cycles rename is unblocking
system.cpu.rename.RenamedInsts                  88777                       # Number of instructions processed by rename
system.cpu.rename.SquashedInsts                  1584                       # Number of squashed instructions processed by rename
system.cpu.rename.ROBFullEvents                   571                       # Number of times rename has blocked due to ROB full
system.cpu.rename.IQFullEvents                     10                       # Number of times rename has blocked due to IQ full
system.cpu.rename.LQFullEvents                  11035                       # Number of times rename has blocked due to LQ full
system.cpu.rename.SQFullEvents                  13287                       # Number of times rename has blocked due to SQ full
system.cpu.rename.FullRegisterEvents                3                       # Number of times there has been no free registers
system.cpu.rename.RenamedOperands               87226                       # Number of destination operands rename has renamed
system.cpu.rename.RenameLookups                405974                       # Number of register rename lookups that rename has made
system.cpu.rename.int_rename_lookups           100105                       # Number of integer rename lookups
system.cpu.rename.fp_rename_lookups                16                       # Number of floating rename lookups
system.cpu.rename.CommittedMaps                 79373                       # Number of HB maps that are committed
system.cpu.rename.UndoneMaps                     7851                       # Number of HB maps that are undone due to squashing
system.cpu.rename.serializingInsts                320                       # count of serializing insts renamed
system.cpu.rename.tempSerializingInsts            320                       # count of temporary serializing insts renamed
system.cpu.rename.skidInsts                     21175                       # count of insts added to the skid buffer
system.cpu.memDep0.insertedLoads                20150                       # Number of loads inserted to the mem dependence unit.
system.cpu.memDep0.insertedStores               14442                       # Number of stores inserted to the mem dependence unit.
system.cpu.memDep0.conflictingLoads              1100                       # Number of conflicting loads.
system.cpu.memDep0.conflictingStores               96                       # Number of conflicting stores.
system.cpu.iq.iqInstsAdded                      86904                       # Number of instructions added to the IQ (excludes non-spec)
system.cpu.iq.iqNonSpecInstsAdded                 632                       # Number of non-speculative instructions added to the IQ
system.cpu.iq.iqInstsIssued                     86062                       # Number of instructions issued
system.cpu.iq.iqSquashedInstsIssued               133                       # Number of squashed instructions issued
system.cpu.iq.iqSquashedInstsExamined            5571                       # Number of squashed instructions iterated over during squash; mainly for profiling
system.cpu.iq.iqSquashedOperandsExamined        13595                       # Number of squashed operands that are examined and possibly removed from graph
system.cpu.iq.iqSquashedNonSpecRemoved              2                       # Number of squashed non-spec instructions that were removed
system.cpu.iq.issued_per_cycle::samples        129013                       # Number of insts issued each cycle
system.cpu.iq.issued_per_cycle::mean         0.667080                       # Number of insts issued each cycle
system.cpu.iq.issued_per_cycle::stdev        0.762720                       # Number of insts issued each cycle
system.cpu.iq.issued_per_cycle::underflows            0      0.00%      0.00% # Number of insts issued each cycle
system.cpu.iq.issued_per_cycle::0               66151     51.27%     51.27% # Number of insts issued each cycle
system.cpu.iq.issued_per_cycle::1               39662     30.74%     82.02% # Number of insts issued each cycle
system.cpu.iq.issued_per_cycle::2               23200     17.98%    100.00% # Number of insts issued each cycle
system.cpu.iq.issued_per_cycle::overflows            0      0.00%    100.00% # Number of insts issued each cycle
system.cpu.iq.issued_per_cycle::min_value            0                       # Number of insts issued each cycle
system.cpu.iq.issued_per_cycle::max_value            2                       # Number of insts issued each cycle
system.cpu.iq.issued_per_cycle::total          129013                       # Number of insts issued each cycle
system.cpu.iq.fu_full::No_OpClass                   0      0.00%      0.00% # attempts to use FU when none available
system.cpu.iq.fu_full::IntAlu                       0      0.00%      0.00% # attempts to use FU when none available
system.cpu.iq.fu_full::IntMult                      0      0.00%      0.00% # attempts to use FU when none available
system.cpu.iq.fu_full::IntDiv                       0      0.00%      0.00% # attempts to use FU when none available
system.cpu.iq.fu_full::FloatAdd                     0      0.00%      0.00% # attempts to use FU when none available
system.cpu.iq.fu_full::FloatCmp                     0      0.00%      0.00% # attempts to use FU when none available
system.cpu.iq.fu_full::FloatCvt                     0      0.00%      0.00% # attempts to use FU when none available
system.cpu.iq.fu_full::FloatMult                    0      0.00%      0.00% # attempts to use FU when none available
system.cpu.iq.fu_full::FloatMultAcc                 0      0.00%      0.00% # attempts to use FU when none available
system.cpu.iq.fu_full::FloatDiv                     0      0.00%      0.00% # attempts to use FU when none available
system.cpu.iq.fu_full::FloatMisc                    0      0.00%      0.00% # attempts to use FU when none available
system.cpu.iq.fu_full::FloatSqrt                    0      0.00%      0.00% # attempts to use FU when none available
system.cpu.iq.fu_full::SimdAdd                      0      0.00%      0.00% # attempts to use FU when none available
system.cpu.iq.fu_full::SimdAddAcc                   0      0.00%      0.00% # attempts to use FU when none available
system.cpu.iq.fu_full::SimdAlu                      0      0.00%      0.00% # attempts to use FU when none available
system.cpu.iq.fu_full::SimdCmp                      0      0.00%      0.00% # attempts to use FU when none available
system.cpu.iq.fu_full::SimdCvt                      0      0.00%      0.00% # attempts to use FU when none available
system.cpu.iq.fu_full::SimdMisc                     0      0.00%      0.00% # attempts to use FU when none available
system.cpu.iq.fu_full::SimdMult                     0      0.00%      0.00% # attempts to use FU when none available
system.cpu.iq.fu_full::SimdMultAcc                  0      0.00%      0.00% # attempts to use FU when none available
system.cpu.iq.fu_full::SimdShift                    0      0.00%      0.00% # attempts to use FU when none available
system.cpu.iq.fu_full::SimdShiftAcc                 0      0.00%      0.00% # attempts to use FU when none available
system.cpu.iq.fu_full::SimdSqrt                     0      0.00%      0.00% # attempts to use FU when none available
system.cpu.iq.fu_full::SimdFloatAdd                 0      0.00%      0.00% # attempts to use FU when none available
system.cpu.iq.fu_full::SimdFloatAlu                 0      0.00%      0.00% # attempts to use FU when none available
system.cpu.iq.fu_full::SimdFloatCmp                 0      0.00%      0.00% # attempts to use FU when none available
system.cpu.iq.fu_full::SimdFloatCvt                 0      0.00%      0.00% # attempts to use FU when none available
system.cpu.iq.fu_full::SimdFloatDiv                 0      0.00%      0.00% # attempts to use FU when none available
system.cpu.iq.fu_full::SimdFloatMisc                0      0.00%      0.00% # attempts to use FU when none available
system.cpu.iq.fu_full::SimdFloatMult                0      0.00%      0.00% # attempts to use FU when none available
system.cpu.iq.fu_full::SimdFloatMultAcc             0      0.00%      0.00% # attempts to use FU when none available
system.cpu.iq.fu_full::SimdFloatSqrt                0      0.00%      0.00% # attempts to use FU when none available
system.cpu.iq.fu_full::MemRead                   2300     51.58%     51.58% # attempts to use FU when none available
system.cpu.iq.fu_full::MemWrite                  2156     48.35%     99.93% # attempts to use FU when none available
system.cpu.iq.fu_full::FloatMemRead                 0      0.00%     99.93% # attempts to use FU when none available
system.cpu.iq.fu_full::FloatMemWrite                3      0.07%    100.00% # attempts to use FU when none available
system.cpu.iq.fu_full::IprAccess                    0      0.00%    100.00% # attempts to use FU when none available
system.cpu.iq.fu_full::InstPrefetch                 0      0.00%    100.00% # attempts to use FU when none available
system.cpu.iq.FU_type_0::No_OpClass                 9      0.01%      0.01% # Type of FU issued
system.cpu.iq.FU_type_0::IntAlu                 52158     60.61%     60.62% # Type of FU issued
system.cpu.iq.FU_type_0::IntMult                   11      0.01%     60.63% # Type of FU issued
system.cpu.iq.FU_type_0::IntDiv                     0      0.00%     60.63% # Type of FU issued
system.cpu.iq.FU_type_0::FloatAdd                   0      0.00%     60.63% # Type of FU issued
system.cpu.iq.FU_type_0::FloatCmp                   0      0.00%     60.63% # Type of FU issued
system.cpu.iq.FU_type_0::FloatCvt                   0      0.00%     60.63% # Type of FU issued
system.cpu.iq.FU_type_0::FloatMult                  0      0.00%     60.63% # Type of FU issued
system.cpu.iq.FU_type_0::FloatMultAcc               0      0.00%     60.63% # Type of FU issued
system.cpu.iq.FU_type_0::FloatDiv                   0      0.00%     60.63% # Type of FU issued
system.cpu.iq.FU_type_0::FloatMisc                  0      0.00%     60.63% # Type of FU issued
system.cpu.iq.FU_type_0::FloatSqrt                  0      0.00%     60.63% # Type of FU issued
system.cpu.iq.FU_type_0::SimdAdd                    0      0.00%     60.63% # Type of FU issued
system.cpu.iq.FU_type_0::SimdAddAcc                 0      0.00%     60.63% # Type of FU issued
system.cpu.iq.FU_type_0::SimdAlu                    0      0.00%     60.63% # Type of FU issued
system.cpu.iq.FU_type_0::SimdCmp                    0      0.00%     60.63% # Type of FU issued
system.cpu.iq.FU_type_0::SimdCvt                    0      0.00%     60.63% # Type of FU issued
system.cpu.iq.FU_type_0::SimdMisc                   0      0.00%     60.63% # Type of FU issued
system.cpu.iq.FU_type_0::SimdMult                   0      0.00%     60.63% # Type of FU issued
system.cpu.iq.FU_type_0::SimdMultAcc                0      0.00%     60.63% # Type of FU issued
system.cpu.iq.FU_type_0::SimdShift                  0      0.00%     60.63% # Type of FU issued
system.cpu.iq.FU_type_0::SimdShiftAcc               0      0.00%     60.63% # Type of FU issued
system.cpu.iq.FU_type_0::SimdSqrt                   0      0.00%     60.63% # Type of FU issued
system.cpu.iq.FU_type_0::SimdFloatAdd               0      0.00%     60.63% # Type of FU issued
system.cpu.iq.FU_type_0::SimdFloatAlu               0      0.00%     60.63% # Type of FU issued
system.cpu.iq.FU_type_0::SimdFloatCmp               0      0.00%     60.63% # Type of FU issued
system.cpu.iq.FU_type_0::SimdFloatCvt               0      0.00%     60.63% # Type of FU issued
system.cpu.iq.FU_type_0::SimdFloatDiv               0      0.00%     60.63% # Type of FU issued
system.cpu.iq.FU_type_0::SimdFloatMisc              0      0.00%     60.63% # Type of FU issued
system.cpu.iq.FU_type_0::SimdFloatMult              0      0.00%     60.63% # Type of FU issued
system.cpu.iq.FU_type_0::SimdFloatMultAcc            0      0.00%     60.63% # Type of FU issued
system.cpu.iq.FU_type_0::SimdFloatSqrt              0      0.00%     60.63% # Type of FU issued
system.cpu.iq.FU_type_0::MemRead                19654     22.84%     83.47% # Type of FU issued
system.cpu.iq.FU_type_0::MemWrite               14214     16.52%     99.98% # Type of FU issued
system.cpu.iq.FU_type_0::FloatMemRead               0      0.00%     99.98% # Type of FU issued
system.cpu.iq.FU_type_0::FloatMemWrite             16      0.02%    100.00% # Type of FU issued
system.cpu.iq.FU_type_0::IprAccess                  0      0.00%    100.00% # Type of FU issued
system.cpu.iq.FU_type_0::InstPrefetch               0      0.00%    100.00% # Type of FU issued
system.cpu.iq.FU_type_0::total                  86062                       # Type of FU issued
system.cpu.iq.rate                           0.529098                       # Inst issue rate
system.cpu.iq.fu_busy_cnt                        4459                       # FU busy when requested
system.cpu.iq.fu_busy_rate                   0.051811                       # FU busy rate (busy events/executed inst)
system.cpu.iq.int_inst_queue_reads             305693                       # Number of integer instruction queue reads
system.cpu.iq.int_inst_queue_writes             93119                       # Number of integer instruction queue writes
system.cpu.iq.int_inst_queue_wakeup_accesses        84416                       # Number of integer instruction queue wakeup accesses
system.cpu.iq.fp_inst_queue_reads                  35                       # Number of floating instruction queue reads
system.cpu.iq.fp_inst_queue_writes                 16                       # Number of floating instruction queue writes
system.cpu.iq.fp_inst_queue_wakeup_accesses           16                       # Number of floating instruction queue wakeup accesses
system.cpu.iq.vec_inst_queue_reads                  0                       # Number of vector instruction queue reads
system.cpu.iq.vec_inst_queue_writes                 0                       # Number of vector instruction queue writes
system.cpu.iq.vec_inst_queue_wakeup_accesses            0                       # Number of vector instruction queue wakeup accesses
system.cpu.iq.int_alu_accesses                  90493                       # Number of integer alu accesses
system.cpu.iq.fp_alu_accesses                      19                       # Number of floating point alu accesses
system.cpu.iq.vec_alu_accesses                      0                       # Number of vector alu accesses
system.cpu.iew.lsq.thread0.forwLoads             1968                       # Number of loads that had data forwarded from stores
system.cpu.iew.lsq.thread0.invAddrLoads             0                       # Number of loads ignored due to an invalid address
system.cpu.iew.lsq.thread0.squashedLoads         1699                       # Number of loads squashed
system.cpu.iew.lsq.thread0.ignoredResponses            3                       # Number of memory responses ignored because the instruction is squashed
system.cpu.iew.lsq.thread0.memOrderViolation           28                       # Number of memory ordering violations
system.cpu.iew.lsq.thread0.squashedStores          605                       # Number of stores squashed
system.cpu.iew.lsq.thread0.invAddrSwpfs             0                       # Number of software prefetches ignored due to an invalid address
system.cpu.iew.lsq.thread0.blockedLoads             0                       # Number of blocked loads due to partial load-store forwarding
system.cpu.iew.lsq.thread0.rescheduledLoads            0                       # Number of loads that were rescheduled
system.cpu.iew.lsq.thread0.cacheBlocked             0                       # Number of times an access to memory failed due to the cache being blocked
system.cpu.iew.iewIdleCycles                        0                       # Number of cycles IEW is idle
system.cpu.iew.iewSquashCycles                   1503                       # Number of cycles IEW is squashing
system.cpu.iew.iewBlockCycles                    1556                       # Number of cycles IEW is blocking
system.cpu.iew.iewUnblockCycles                  5170                       # Number of cycles IEW is unblocking
system.cpu.iew.iewDispatchedInsts               87536                       # Number of instructions dispatched to IQ
system.cpu.iew.iewDispSquashedInsts                 0                       # Number of squashed instructions skipped by dispatch
system.cpu.iew.iewDispLoadInsts                 20150                       # Number of dispatched load instructions
system.cpu.iew.iewDispStoreInsts                14442                       # Number of dispatched store instructions
system.cpu.iew.iewDispNonSpecInsts                321                       # Number of dispatched non-speculative instructions
system.cpu.iew.iewIQFullEvents                      1                       # Number of times the IQ has become full, causing a stall
system.cpu.iew.iewLSQFullEvents                  4968                       # Number of times the LSQ has become full, causing a stall
system.cpu.iew.memOrderViolationEvents             28                       # Number of memory order violations
system.cpu.iew.predictedTakenIncorrect            805                       # Number of branches that were predicted taken incorrectly
system.cpu.iew.predictedNotTakenIncorrect          674                       # Number of branches that were predicted not taken incorrectly
system.cpu.iew.branchMispredicts                 1479                       # Number of branch mispredicts detected at execute
system.cpu.iew.iewExecutedInsts                 84781                       # Number of executed instructions
system.cpu.iew.iewExecLoadInsts                 18907                       # Number of load instructions executed
system.cpu.iew.iewExecSquashedInsts              1280                       # Number of squashed instructions skipped in execute
system.cpu.iew.exec_swp                             0                       # number of swp insts executed
system.cpu.iew.exec_nop                             0                       # number of nop insts executed
system.cpu.iew.exec_refs                        32999                       # number of memory reference insts executed
system.cpu.iew.exec_branches                    13276                       # Number of branches executed
system.cpu.iew.exec_stores                      14092                       # Number of stores executed
system.cpu.iew.exec_rate                     0.521222                       # Inst execution rate
system.cpu.iew.wb_sent                          84564                       # cumulative count of insts sent to commit
system.cpu.iew.wb_count                         84432                       # cumulative count of insts written-back
system.cpu.iew.wb_producers                     37960                       # num instructions producing a value
system.cpu.iew.wb_consumers                     52560                       # num instructions consuming a value
system.cpu.iew.wb_rate                       0.519077                       # insts written-back per cycle
system.cpu.iew.wb_fanout                     0.722222                       # average fanout of values written-back
system.cpu.commit.commitSquashedInsts            4649                       # The number of squashed insts skipped by commit
system.cpu.commit.commitNonSpecStalls             630                       # The number of times commit has been forced to stall to communicate backwards
system.cpu.commit.branchMispredicts              1463                       # The number of times a branch was mispredicted
system.cpu.commit.committed_per_cycle::samples       126187                       # Number of insts commited each cycle
system.cpu.commit.committed_per_cycle::mean     0.649536                       # Number of insts commited each cycle
system.cpu.commit.committed_per_cycle::stdev     0.799217                       # Number of insts commited each cycle
system.cpu.commit.committed_per_cycle::underflows            0      0.00%      0.00% # Number of insts commited each cycle
system.cpu.commit.committed_per_cycle::0        70162     55.60%     55.60% # Number of insts commited each cycle
system.cpu.commit.committed_per_cycle::1        30087     23.84%     79.44% # Number of insts commited each cycle
system.cpu.commit.committed_per_cycle::2        25938     20.56%    100.00% # Number of insts commited each cycle
system.cpu.commit.committed_per_cycle::overflows            0      0.00%    100.00% # Number of insts commited each cycle
system.cpu.commit.committed_per_cycle::min_value            0                       # Number of insts commited each cycle
system.cpu.commit.committed_per_cycle::max_value            2                       # Number of insts commited each cycle
system.cpu.commit.committed_per_cycle::total       126187                       # Number of insts commited each cycle
system.cpu.commit.committedInsts                70418                       # Number of instructions committed
system.cpu.commit.committedOps                  81963                       # Number of ops (including micro ops) committed
system.cpu.commit.swp_count                         0                       # Number of s/w prefetches committed
system.cpu.commit.refs                          32288                       # Number of memory references committed
system.cpu.commit.loads                         18451                       # Number of loads committed
system.cpu.commit.membars                         311                       # Number of memory barriers committed
system.cpu.commit.branches                      12836                       # Number of branches committed
system.cpu.commit.vec_insts                         0                       # Number of committed Vector instructions.
system.cpu.commit.fp_insts                         16                       # Number of committed floating point instructions.
system.cpu.commit.int_insts                     74173                       # Number of committed integer instructions.
system.cpu.commit.function_calls                 2269                       # Number of function calls committed.
system.cpu.commit.op_class_0::No_OpClass            0      0.00%      0.00% # Class of committed instruction
system.cpu.commit.op_class_0::IntAlu            49671     60.60%     60.60% # Class of committed instruction
system.cpu.commit.op_class_0::IntMult               4      0.00%     60.61% # Class of committed instruction
system.cpu.commit.op_class_0::IntDiv                0      0.00%     60.61% # Class of committed instruction
system.cpu.commit.op_class_0::FloatAdd              0      0.00%     60.61% # Class of committed instruction
system.cpu.commit.op_class_0::FloatCmp              0      0.00%     60.61% # Class of committed instruction
system.cpu.commit.op_class_0::FloatCvt              0      0.00%     60.61% # Class of committed instruction
system.cpu.commit.op_class_0::FloatMult             0      0.00%     60.61% # Class of committed instruction
system.cpu.commit.op_class_0::FloatMultAcc            0      0.00%     60.61% # Class of committed instruction
system.cpu.commit.op_class_0::FloatDiv              0      0.00%     60.61% # Class of committed instruction
system.cpu.commit.op_class_0::FloatMisc             0      0.00%     60.61% # Class of committed instruction
system.cpu.commit.op_class_0::FloatSqrt             0      0.00%     60.61% # Class of committed instruction
system.cpu.commit.op_class_0::SimdAdd               0      0.00%     60.61% # Class of committed instruction
system.cpu.commit.op_class_0::SimdAddAcc            0      0.00%     60.61% # Class of committed instruction
system.cpu.commit.op_class_0::SimdAlu               0      0.00%     60.61% # Class of committed instruction
system.cpu.commit.op_class_0::SimdCmp               0      0.00%     60.61% # Class of committed instruction
system.cpu.commit.op_class_0::SimdCvt               0      0.00%     60.61% # Class of committed instruction
system.cpu.commit.op_class_0::SimdMisc              0      0.00%     60.61% # Class of committed instruction
system.cpu.commit.op_class_0::SimdMult              0      0.00%     60.61% # Class of committed instruction
system.cpu.commit.op_class_0::SimdMultAcc            0      0.00%     60.61% # Class of committed instruction
system.cpu.commit.op_class_0::SimdShift             0      0.00%     60.61% # Class of committed instruction
system.cpu.commit.op_class_0::SimdShiftAcc            0      0.00%     60.61% # Class of committed instruction
system.cpu.commit.op_class_0::SimdSqrt              0      0.00%     60.61% # Class of committed instruction
system.cpu.commit.op_class_0::SimdFloatAdd            0      0.00%     60.61% # Class of committed instruction
system.cpu.commit.op_class_0::SimdFloatAlu            0      0.00%     60.61% # Class of committed instruction
system.cpu.commit.op_class_0::SimdFloatCmp            0      0.00%     60.61% # Class of committed instruction
system.cpu.commit.op_class_0::SimdFloatCvt            0      0.00%     60.61% # Class of committed instruction
system.cpu.commit.op_class_0::SimdFloatDiv            0      0.00%     60.61% # Class of committed instruction
system.cpu.commit.op_class_0::SimdFloatMisc            0      0.00%     60.61% # Class of committed instruction
system.cpu.commit.op_class_0::SimdFloatMult            0      0.00%     60.61% # Class of committed instruction
system.cpu.commit.op_class_0::SimdFloatMultAcc            0      0.00%     60.61% # Class of committed instruction
system.cpu.commit.op_class_0::SimdFloatSqrt            0      0.00%     60.61% # Class of committed instruction
system.cpu.commit.op_class_0::MemRead           18451     22.51%     83.12% # Class of committed instruction
system.cpu.commit.op_class_0::MemWrite          13821     16.86%     99.98% # Class of committed instruction
system.cpu.commit.op_class_0::FloatMemRead            0      0.00%     99.98% # Class of committed instruction
system.cpu.commit.op_class_0::FloatMemWrite           16      0.02%    100.00% # Class of committed instruction
system.cpu.commit.op_class_0::IprAccess             0      0.00%    100.00% # Class of committed instruction
system.cpu.commit.op_class_0::InstPrefetch            0      0.00%    100.00% # Class of committed instruction
system.cpu.commit.op_class_0::total             81963                       # Class of committed instruction
system.cpu.commit.bw_lim_events                 25938                       # number cycles where commit BW limit reached
system.cpu.rob.rob_reads                       186718                       # The number of ROB reads
system.cpu.rob.rob_writes                      176052                       # The number of ROB writes
system.cpu.timesIdled                             391                       # Number of times that the entire CPU went into an idle state and unscheduled itself
system.cpu.idleCycles                           33645                       # Total number of cycles that the CPU has spent unscheduled due to idling
system.cpu.committedInsts                       70418                       # Number of Instructions Simulated
system.cpu.committedOps                         81963                       # Number of Ops (including micro ops) Simulated
system.cpu.cpi                               2.309892                       # CPI: Cycles Per Instruction
system.cpu.cpi_total                         2.309892                       # CPI: Total CPI of All Threads
system.cpu.ipc                               0.432921                       # IPC: Instructions Per Cycle
system.cpu.ipc_total                         0.432921                       # IPC: Total IPC of All Threads
system.cpu.int_regfile_reads                    90109                       # number of integer regfile reads
system.cpu.int_regfile_writes                   54782                       # number of integer regfile writes
system.cpu.fp_regfile_reads                        16                       # number of floating regfile reads
system.cpu.cc_regfile_reads                    310547                       # number of cc regfile reads
system.cpu.cc_regfile_writes                    24498                       # number of cc regfile writes
system.cpu.misc_regfile_reads                   36388                       # number of misc regfile reads
system.cpu.misc_regfile_writes                   1229                       # number of misc regfile writes
system.cpu.dcache.tags.pwrStateResidencyTicks::UNDEFINED    135493281                       # Cumulative time (in ticks) in various power states
system.cpu.dcache.tags.replacements                 0                       # number of replacements
system.cpu.dcache.tags.tagsinuse           211.307402                       # Cycle average of tags in use
system.cpu.dcache.tags.total_refs                   0                       # Total number of references to valid blocks.
system.cpu.dcache.tags.sampled_refs                 0                       # Sample count of references to valid blocks.
system.cpu.dcache.tags.avg_refs                   nan                       # Average number of references to valid blocks.
system.cpu.dcache.tags.warmup_cycle            199920                       # Cycle when the warmup percentage was hit.
system.cpu.dcache.tags.occ_blocks::cpu.data   211.307402                       # Average occupied blocks per requestor
system.cpu.dcache.tags.occ_percent::cpu.data     0.206355                       # Average percentage of cache occupancy
system.cpu.dcache.tags.occ_percent::total     0.206355                       # Average percentage of cache occupancy
system.cpu.dcache.tags.occ_task_id_blocks::1024          313                       # Occupied blocks per task id
system.cpu.dcache.tags.age_task_id_blocks_1024::0           15                       # Occupied blocks per task id
system.cpu.dcache.tags.age_task_id_blocks_1024::1          120                       # Occupied blocks per task id
system.cpu.dcache.tags.age_task_id_blocks_1024::2          178                       # Occupied blocks per task id
system.cpu.dcache.tags.occ_task_id_percent::1024     0.305664                       # Percentage of cache occupancy per task id
system.cpu.dcache.tags.tag_accesses            122545                       # Number of tag accesses
system.cpu.dcache.tags.data_accesses           122545                       # Number of data accesses
system.cpu.dcache.pwrStateResidencyTicks::UNDEFINED    135493281                       # Cumulative time (in ticks) in various power states
[...]
system.l2.ReadExReq_accesses::cpu.data              1                       # number of ReadExReq accesses(hits+misses)
system.l2.ReadExReq_accesses::total                 1                       # number of ReadExReq accesses(hits+misses)
system.l2.ReadCleanReq_accesses::cpu.inst           59                       # number of ReadCleanReq accesses(hits+misses)
system.l2.ReadCleanReq_accesses::total             59                       # number of ReadCleanReq accesses(hits+misses)
system.l2.ReadSharedReq_accesses::cpu.data           18                       # number of ReadSharedReq accesses(hits+misses)
system.l2.ReadSharedReq_accesses::total            18                       # number of ReadSharedReq accesses(hits+misses)
system.l2.demand_accesses::cpu.inst                59                       # number of demand (read+write) accesses
system.l2.demand_accesses::cpu.data                19                       # number of demand (read+write) accesses
system.l2.demand_accesses::total                   78                       # number of demand (read+write) accesses
system.l2.overall_accesses::cpu.inst               59                       # number of overall (read+write) accesses
system.l2.overall_accesses::cpu.data               19                       # number of overall (read+write) accesses
system.l2.overall_accesses::total                  78                       # number of overall (read+write) accesses
system.l2.ReadExReq_miss_rate::cpu.data             1                       # miss rate for ReadExReq accesses
system.l2.ReadExReq_miss_rate::total                1                       # miss rate for ReadExReq accesses
system.l2.ReadCleanReq_miss_rate::cpu.inst     0.796610                       # miss rate for ReadCleanReq accesses
system.l2.ReadCleanReq_miss_rate::total      0.796610                       # miss rate for ReadCleanReq accesses
system.l2.ReadSharedReq_miss_rate::cpu.data            1                       # miss rate for ReadSharedReq accesses
system.l2.ReadSharedReq_miss_rate::total            1                       # miss rate for ReadSharedReq accesses
system.l2.demand_miss_rate::cpu.inst         0.796610                       # miss rate for demand accesses
system.l2.demand_miss_rate::cpu.data                1                       # miss rate for demand accesses
system.l2.demand_miss_rate::total            0.846154                       # miss rate for demand accesses
system.l2.overall_miss_rate::cpu.inst        0.796610                       # miss rate for overall accesses
system.l2.overall_miss_rate::cpu.data               1                       # miss rate for overall accesses
system.l2.overall_miss_rate::total           0.846154                       # miss rate for overall accesses
system.l2.ReadExReq_avg_miss_latency::cpu.data       162435                       # average ReadExReq miss latency
system.l2.ReadExReq_avg_miss_latency::total       162435                       # average ReadExReq miss latency
system.l2.ReadCleanReq_avg_miss_latency::cpu.inst 101253.808511                       # average ReadCleanReq miss latency
system.l2.ReadCleanReq_avg_miss_latency::total 101253.808511                       # average ReadCleanReq miss latency
system.l2.ReadSharedReq_avg_miss_latency::cpu.data       107457                       # average ReadSharedReq miss latency
system.l2.ReadSharedReq_avg_miss_latency::total       107457                       # average ReadSharedReq miss latency
system.l2.demand_avg_miss_latency::cpu.inst 101253.808511                       # average overall miss latency
system.l2.demand_avg_miss_latency::cpu.data 110350.578947                       # average overall miss latency
system.l2.demand_avg_miss_latency::total 103872.575758                       # average overall miss latency
system.l2.overall_avg_miss_latency::cpu.inst 101253.808511                       # average overall miss latency
system.l2.overall_avg_miss_latency::cpu.data 110350.578947                       # average overall miss latency
system.l2.overall_avg_miss_latency::total 103872.575758                       # average overall miss latency
system.l2.blocked_cycles::no_mshrs                  0                       # number of cycles access was blocked
system.l2.blocked_cycles::no_targets                0                       # number of cycles access was blocked
system.l2.blocked::no_mshrs                         0                       # number of cycles access was blocked
system.l2.blocked::no_targets                       0                       # number of cycles access was blocked
system.l2.avg_blocked_cycles::no_mshrs            nan                       # average number of cycles each access was blocked
system.l2.avg_blocked_cycles::no_targets          nan                       # average number of cycles each access was blocked
system.l2.ReadSharedReq_mshr_hits::cpu.data            1                       # number of ReadSharedReq MSHR hits
system.l2.ReadSharedReq_mshr_hits::total            1                       # number of ReadSharedReq MSHR hits
system.l2.demand_mshr_hits::cpu.data                1                       # number of demand (read+write) MSHR hits
system.l2.demand_mshr_hits::total                   1                       # number of demand (read+write) MSHR hits
system.l2.overall_mshr_hits::cpu.data               1                       # number of overall MSHR hits
system.l2.overall_mshr_hits::total                  1                       # number of overall MSHR hits
system.l2.ReadExReq_mshr_misses::cpu.data            1                       # number of ReadExReq MSHR misses
system.l2.ReadExReq_mshr_misses::total              1                       # number of ReadExReq MSHR misses
system.l2.ReadCleanReq_mshr_misses::cpu.inst           47                       # number of ReadCleanReq MSHR misses
system.l2.ReadCleanReq_mshr_misses::total           47                       # number of ReadCleanReq MSHR misses
system.l2.ReadSharedReq_mshr_misses::cpu.data           17                       # number of ReadSharedReq MSHR misses
system.l2.ReadSharedReq_mshr_misses::total           17                       # number of ReadSharedReq MSHR misses
system.l2.demand_mshr_misses::cpu.inst             47                       # number of demand (read+write) MSHR misses
system.l2.demand_mshr_misses::cpu.data             18                       # number of demand (read+write) MSHR misses
system.l2.demand_mshr_misses::total                65                       # number of demand (read+write) MSHR misses
system.l2.overall_mshr_misses::cpu.inst            47                       # number of overall MSHR misses
system.l2.overall_mshr_misses::cpu.data            18                       # number of overall MSHR misses
system.l2.overall_mshr_misses::total               65                       # number of overall MSHR misses
system.l2.ReadExReq_mshr_miss_latency::cpu.data       151630                       # number of ReadExReq MSHR miss cycles
system.l2.ReadExReq_mshr_miss_latency::total       151630                       # number of ReadExReq MSHR miss cycles
system.l2.ReadCleanReq_mshr_miss_latency::cpu.inst      4268574                       # number of ReadCleanReq MSHR miss cycles
system.l2.ReadCleanReq_mshr_miss_latency::total      4268574                       # number of ReadCleanReq MSHR miss cycles
system.l2.ReadSharedReq_mshr_miss_latency::cpu.data      1678845                       # number of ReadSharedReq MSHR miss cycles
system.l2.ReadSharedReq_mshr_miss_latency::total      1678845                       # number of ReadSharedReq MSHR miss cycles
system.l2.demand_mshr_miss_latency::cpu.inst      4268574                       # number of demand (read+write) MSHR miss cycles
system.l2.demand_mshr_miss_latency::cpu.data      1830475                       # number of demand (read+write) MSHR miss cycles
system.l2.demand_mshr_miss_latency::total      6099049                       # number of demand (read+write) MSHR miss cycles
system.l2.overall_mshr_miss_latency::cpu.inst      4268574                       # number of overall MSHR miss cycles
system.l2.overall_mshr_miss_latency::cpu.data      1830475                       # number of overall MSHR miss cycles
system.l2.overall_mshr_miss_latency::total      6099049                       # number of overall MSHR miss cycles
system.l2.ReadExReq_mshr_miss_rate::cpu.data            1                       # mshr miss rate for ReadExReq accesses
system.l2.ReadExReq_mshr_miss_rate::total            1                       # mshr miss rate for ReadExReq accesses
system.l2.ReadCleanReq_mshr_miss_rate::cpu.inst     0.796610                       # mshr miss rate for ReadCleanReq accesses
system.l2.ReadCleanReq_mshr_miss_rate::total     0.796610                       # mshr miss rate for ReadCleanReq accesses
system.l2.ReadSharedReq_mshr_miss_rate::cpu.data     0.944444                       # mshr miss rate for ReadSharedReq accesses
system.l2.ReadSharedReq_mshr_miss_rate::total     0.944444                       # mshr miss rate for ReadSharedReq accesses
system.l2.demand_mshr_miss_rate::cpu.inst     0.796610                       # mshr miss rate for demand accesses
system.l2.demand_mshr_miss_rate::cpu.data     0.947368                       # mshr miss rate for demand accesses
system.l2.demand_mshr_miss_rate::total       0.833333                       # mshr miss rate for demand accesses
system.l2.overall_mshr_miss_rate::cpu.inst     0.796610                       # mshr miss rate for overall accesses
system.l2.overall_mshr_miss_rate::cpu.data     0.947368                       # mshr miss rate for overall accesses
system.l2.overall_mshr_miss_rate::total      0.833333                       # mshr miss rate for overall accesses
system.l2.ReadExReq_avg_mshr_miss_latency::cpu.data       151630                       # average ReadExReq mshr miss latency
system.l2.ReadExReq_avg_mshr_miss_latency::total       151630                       # average ReadExReq mshr miss latency
system.l2.ReadCleanReq_avg_mshr_miss_latency::cpu.inst 90820.723404                       # average ReadCleanReq mshr miss latency
system.l2.ReadCleanReq_avg_mshr_miss_latency::total 90820.723404                       # average ReadCleanReq mshr miss latency
system.l2.ReadSharedReq_avg_mshr_miss_latency::cpu.data 98755.588235                       # average ReadSharedReq mshr miss latency
system.l2.ReadSharedReq_avg_mshr_miss_latency::total 98755.588235                       # average ReadSharedReq mshr miss latency
system.l2.demand_avg_mshr_miss_latency::cpu.inst 90820.723404                       # average overall mshr miss latency
system.l2.demand_avg_mshr_miss_latency::cpu.data 101693.055556                       # average overall mshr miss latency
system.l2.demand_avg_mshr_miss_latency::total 93831.523077                       # average overall mshr miss latency
system.l2.overall_avg_mshr_miss_latency::cpu.inst 90820.723404                       # average overall mshr miss latency
system.l2.overall_avg_mshr_miss_latency::cpu.data 101693.055556                       # average overall mshr miss latency
system.l2.overall_avg_mshr_miss_latency::total 93831.523077                       # average overall mshr miss latency
system.membus.snoop_filter.tot_requests            65                       # Total number of requests made to the snoop filter.
system.membus.snoop_filter.hit_single_requests           12                       # Number of requests hitting in the snoop filter with a single holder of the requested data.
system.membus.snoop_filter.hit_multi_requests            0                       # Number of requests hitting in the snoop filter with multiple (>1) holders of the requested data.
system.membus.snoop_filter.tot_snoops               0                       # Total number of snoops made to the snoop filter.
system.membus.snoop_filter.hit_single_snoops            0                       # Number of snoops hitting in the snoop filter with a single holder of the requested data.
system.membus.snoop_filter.hit_multi_snoops            0                       # Number of snoops hitting in the snoop filter with multiple (>1) holders of the requested data.
system.membus.pwrStateResidencyTicks::UNDEFINED      8948086                       # Cumulative time (in ticks) in various power states
system.membus.trans_dist::ReadResp                 64                       # Transaction distribution
system.membus.trans_dist::ReadExReq                 1                       # Transaction distribution
system.membus.trans_dist::ReadExResp                1                       # Transaction distribution
system.membus.trans_dist::ReadCleanReq             64                       # Transaction distribution
system.membus.pkt_count_system.l2.mem_side::system.mem_ctrls.port          130                       # Packet count per connected master and slave (bytes)
system.membus.pkt_count::total                    130                       # Packet count per connected master and slave (bytes)
system.membus.pkt_size_system.l2.mem_side::system.mem_ctrls.port         4160                       # Cumulative packet size per connected master and slave (bytes)
system.membus.pkt_size::total                    4160                       # Cumulative packet size per connected master and slave (bytes)
system.membus.snoops                                0                       # Total snoops (count)
system.membus.snoopTraffic                          0                       # Total snoop traffic (bytes)
system.membus.snoop_fanout::samples                65                       # Request fanout histogram
system.membus.snoop_fanout::mean                    0                       # Request fanout histogram
system.membus.snoop_fanout::stdev                   0                       # Request fanout histogram
system.membus.snoop_fanout::underflows              0      0.00%      0.00% # Request fanout histogram
system.membus.snoop_fanout::0                      65    100.00%    100.00% # Request fanout histogram
system.membus.snoop_fanout::1                       0      0.00%    100.00% # Request fanout histogram
system.membus.snoop_fanout::overflows               0      0.00%    100.00% # Request fanout histogram
system.membus.snoop_fanout::min_value               0                       # Request fanout histogram
system.membus.snoop_fanout::max_value               0                       # Request fanout histogram
system.membus.snoop_fanout::total                  65                       # Request fanout histogram
system.membus.reqLayer0.occupancy               96576                       # Layer occupancy (ticks)
system.membus.reqLayer0.utilization               1.1                       # Layer utilization (%)
system.membus.respLayer1.occupancy             356430                       # Layer occupancy (ticks)
system.membus.respLayer1.utilization              4.0                       # Layer utilization (%)
system.tol2bus.snoop_filter.tot_requests          119                       # Total number of requests made to the snoop filter.
system.tol2bus.snoop_filter.hit_single_requests           51                       # Number of requests hitting in the snoop filter with a single holder of the requested data.
system.tol2bus.snoop_filter.hit_multi_requests            3                       # Number of requests hitting in the snoop filter with multiple (>1) holders of the requested data.
system.tol2bus.snoop_filter.tot_snoops              0                       # Total number of snoops made to the snoop filter.
system.tol2bus.snoop_filter.hit_single_snoops            0                       # Number of snoops hitting in the snoop filter with a single holder of the requested data.
system.tol2bus.snoop_filter.hit_multi_snoops            0                       # Number of snoops hitting in the snoop filter with multiple (>1) holders of the requested data.
system.tol2bus.pwrStateResidencyTicks::UNDEFINED      8948086                       # Cumulative time (in ticks) in various power states
system.tol2bus.trans_dist::ReadResp                77                       # Transaction distribution
system.tol2bus.trans_dist::WritebackClean           41                       # Transaction distribution
system.tol2bus.trans_dist::ReadExReq                1                       # Transaction distribution
system.tol2bus.trans_dist::ReadExResp               1                       # Transaction distribution
system.tol2bus.trans_dist::ReadCleanReq            59                       # Transaction distribution
system.tol2bus.trans_dist::ReadSharedReq           18                       # Transaction distribution
system.tol2bus.pkt_count_system.cpu.icache.mem_side::system.l2.cpu_side          159                       # Packet count per connected master and slave (bytes)
system.tol2bus.pkt_count_system.cpu.dcache.mem_side::system.l2.cpu_side           38                       # Packet count per connected master and slave (bytes)
system.tol2bus.pkt_count::total                   197                       # Packet count per connected master and slave (bytes)
system.tol2bus.pkt_size_system.cpu.icache.mem_side::system.l2.cpu_side         6400                       # Cumulative packet size per connected master and slave (bytes)
system.tol2bus.pkt_size_system.cpu.dcache.mem_side::system.l2.cpu_side         1216                       # Cumulative packet size per connected master and slave (bytes)
system.tol2bus.pkt_size::total                   7616                       # Cumulative packet size per connected master and slave (bytes)
system.tol2bus.snoops                               0                       # Total snoops (count)
system.tol2bus.snoopTraffic                         0                       # Total snoop traffic (bytes)
system.tol2bus.snoop_fanout::samples               78                       # Request fanout histogram
system.tol2bus.snoop_fanout::mean            0.166667                       # Request fanout histogram
system.tol2bus.snoop_fanout::stdev           0.375090                       # Request fanout histogram
system.tol2bus.snoop_fanout::underflows             0      0.00%      0.00% # Request fanout histogram
system.tol2bus.snoop_fanout::0                     65     83.33%     83.33% # Request fanout histogram
system.tol2bus.snoop_fanout::1                     13     16.67%    100.00% # Request fanout histogram
system.tol2bus.snoop_fanout::2                      0      0.00%    100.00% # Request fanout histogram
system.tol2bus.snoop_fanout::3                      0      0.00%    100.00% # Request fanout histogram
system.tol2bus.snoop_fanout::4                      0      0.00%    100.00% # Request fanout histogram
system.tol2bus.snoop_fanout::overflows              0      0.00%    100.00% # Request fanout histogram
system.tol2bus.snoop_fanout::min_value              0                       # Request fanout histogram
system.tol2bus.snoop_fanout::max_value              1                       # Request fanout histogram
system.tol2bus.snoop_fanout::total                 78                       # Request fanout histogram
system.tol2bus.reqLayer0.occupancy             167433                       # Layer occupancy (ticks)
system.tol2bus.reqLayer0.utilization              1.9                       # Layer utilization (%)
system.tol2bus.respLayer0.occupancy            147441                       # Layer occupancy (ticks)
system.tol2bus.respLayer0.utilization             1.6                       # Layer utilization (%)
system.tol2bus.respLayer1.occupancy             48313                       # Layer occupancy (ticks)
system.tol2bus.respLayer1.utilization             0.5                       # Layer utilization (%)

---------- End Simulation Statistics   ----------
