
---------- Begin Simulation Statistics ----------
sim_seconds                                  0.000578                       # Number of seconds simulated
sim_ticks                                   577806285                       # Number of ticks simulated
final_tick                                  577806285                       # Number of ticks from beginning of simulation (restored from checkpoints and never reset)
sim_freq                                 1000000000000                       # Frequency of simulated ticks
host_inst_rate                                 116963                       # Simulator instruction rate (inst/s)
host_op_rate                                   136142                       # Simulator op (including micro ops) rate (op/s)
host_tick_rate                              959640290                       # Simulator tick rate (ticks/s)
host_mem_usage                                1195400                       # Number of bytes of host memory used
host_seconds                                     0.60                       # Real time elapsed on the host
sim_insts                                       70422                       # Number of instructions simulated
sim_ops                                         81971                       # Number of ops (including micro ops) simulated
system.voltage_domain.voltage                       1                       # Voltage in Volts
system.clk_domain.clock                          1000                       # Clock period in ticks
system.mem_ctrls.pwrStateResidencyTicks::UNDEFINED    577806285                       # Cumulative time (in ticks) in various power states
system.mem_ctrls.bytes_read::cpu.inst          323328                       # Number of bytes read from this memory
system.mem_ctrls.bytes_read::cpu.data          129792                       # Number of bytes read from this memory
system.mem_ctrls.bytes_read::l2.prefetcher        45888                       # Number of bytes read from this memory
system.mem_ctrls.bytes_read::total             499008                       # Number of bytes read from this memory
system.mem_ctrls.bytes_inst_read::cpu.inst       323328                       # Number of instructions bytes read from this memory
system.mem_ctrls.bytes_inst_read::total        323328                       # Number of instructions bytes read from this memory
system.mem_ctrls.bytes_written::writebacks        44800                       # Number of bytes written to this memory
system.mem_ctrls.bytes_written::total           44800                       # Number of bytes written to this memory
system.mem_ctrls.num_reads::cpu.inst             5052                       # Number of read requests responded to by this memory
system.mem_ctrls.num_reads::cpu.data             2028                       # Number of read requests responded to by this memory
system.mem_ctrls.num_reads::l2.prefetcher          717                       # Number of read requests responded to by this memory
system.mem_ctrls.num_reads::total                7797                       # Number of read requests responded to by this memory
system.mem_ctrls.num_writes::writebacks           700                       # Number of write requests responded to by this memory
system.mem_ctrls.num_writes::total                700                       # Number of write requests responded to by this memory
system.mem_ctrls.bw_read::cpu.inst          559578545                       # Total read bandwidth from this memory (bytes/s)
system.mem_ctrls.bw_read::cpu.data          224628917                       # Total read bandwidth from this memory (bytes/s)
system.mem_ctrls.bw_read::l2.prefetcher      79417620                       # Total read bandwidth from this memory (bytes/s)
system.mem_ctrls.bw_read::total             863625082                       # Total read bandwidth from this memory (bytes/s)
system.mem_ctrls.bw_inst_read::cpu.inst     559578545                       # Instruction read bandwidth from this memory (bytes/s)
system.mem_ctrls.bw_inst_read::total        559578545                       # Instruction read bandwidth from this memory (bytes/s)
system.mem_ctrls.bw_write::writebacks        77534636                       # Write bandwidth from this memory (bytes/s)
system.mem_ctrls.bw_write::total             77534636                       # Write bandwidth from this memory (bytes/s)
system.mem_ctrls.bw_total::writebacks        77534636                       # Total bandwidth to/from this memory (bytes/s)
system.mem_ctrls.bw_total::cpu.inst         559578545                       # Total bandwidth to/from this memory (bytes/s)
system.mem_ctrls.bw_total::cpu.data         224628917                       # Total bandwidth to/from this memory (bytes/s)
system.mem_ctrls.bw_total::l2.prefetcher     79417620                       # Total bandwidth to/from this memory (bytes/s)
system.mem_ctrls.bw_total::total            941159718                       # Total bandwidth to/from this memory (bytes/s)
system.mem_ctrls.readReqs                        7797                       # Number of read requests accepted
system.mem_ctrls.writeReqs                        700                       # Number of write requests accepted
system.mem_ctrls.readBursts                     15594                       # Number of DRAM read bursts, including those serviced by the write queue
system.mem_ctrls.writeBursts                     1400                       # Number of DRAM write bursts, including those merged in the write queue
system.mem_ctrls.bytesReadDRAM                 473280                       # Total number of bytes read from DRAM
system.mem_ctrls.bytesReadWrQ                   25728                       # Total number of bytes read from write queue
system.mem_ctrls.bytesWritten                   26784                       # Total number of bytes written to DRAM
system.mem_ctrls.bytesReadSys                  499008                       # Total read bytes from the system interface side
system.mem_ctrls.bytesWrittenSys                44800                       # Total written bytes from the system interface side
system.mem_ctrls.servicedByWrQ                    804                       # Number of DRAM read bursts serviced by the write queue
system.mem_ctrls.mergedWrBursts                   540                       # Number of DRAM write bursts merged with an existing one
system.mem_ctrls.neitherReadNorWriteReqs            0                       # Number of requests that are neither read nor write
system.mem_ctrls.perBankRdBursts::0              1771                       # Per bank write bursts
system.mem_ctrls.perBankRdBursts::1              2477                       # Per bank write bursts
system.mem_ctrls.perBankRdBursts::2              1990                       # Per bank write bursts
system.mem_ctrls.perBankRdBursts::3              2178                       # Per bank write bursts
system.mem_ctrls.perBankRdBursts::4               708                       # Per bank write bursts
system.mem_ctrls.perBankRdBursts::5              4172                       # Per bank write bursts
system.mem_ctrls.perBankRdBursts::6               128                       # Per bank write bursts
system.mem_ctrls.perBankRdBursts::7              1366                       # Per bank write bursts
system.mem_ctrls.perBankWrBursts::0               157                       # Per bank write bursts
system.mem_ctrls.perBankWrBursts::1               271                       # Per bank write bursts
system.mem_ctrls.perBankWrBursts::2                16                       # Per bank write bursts
system.mem_ctrls.perBankWrBursts::3                96                       # Per bank write bursts
system.mem_ctrls.perBankWrBursts::4                98                       # Per bank write bursts
system.mem_ctrls.perBankWrBursts::5                20                       # Per bank write bursts
system.mem_ctrls.perBankWrBursts::6                34                       # Per bank write bursts
system.mem_ctrls.perBankWrBursts::7               145                       # Per bank write bursts
system.mem_ctrls.numRdRetry                         0                       # Number of times read queue was full causing retry
system.mem_ctrls.numWrRetry                         0                       # Number of times write queue was full causing retry
system.mem_ctrls.totGap                     577675504                       # Total gap between requests
system.mem_ctrls.readPktSize::0                     0                       # Read request sizes (log2)
system.mem_ctrls.readPktSize::1                     0                       # Read request sizes (log2)
system.mem_ctrls.readPktSize::2                     0                       # Read request sizes (log2)
system.mem_ctrls.readPktSize::3                     0                       # Read request sizes (log2)
system.mem_ctrls.readPktSize::4                     0                       # Read request sizes (log2)
system.mem_ctrls.readPktSize::5                 15594                       # Read request sizes (log2)
system.mem_ctrls.writePktSize::0                    0                       # Write request sizes (log2)
system.mem_ctrls.writePktSize::1                    0                       # Write request sizes (log2)
system.mem_ctrls.writePktSize::2                    0                       # Write request sizes (log2)
system.mem_ctrls.writePktSize::3                    0                       # Write request sizes (log2)
system.mem_ctrls.writePktSize::4                    0                       # Write request sizes (log2)
system.mem_ctrls.writePktSize::5                 1400                       # Write request sizes (log2)
system.mem_ctrls.rdQLenPdf::0                    4732                       # What read queue length does an incoming req see
system.mem_ctrls.rdQLenPdf::1                    4807                       # What read queue length does an incoming req see
system.mem_ctrls.rdQLenPdf::2                    1712                       # What read queue length does an incoming req see
system.mem_ctrls.rdQLenPdf::3                    1644                       # What read queue length does an incoming req see
system.mem_ctrls.rdQLenPdf::4                     302                       # What read queue length does an incoming req see
system.mem_ctrls.rdQLenPdf::5                     297                       # What read queue length does an incoming req see
system.mem_ctrls.rdQLenPdf::6                     132                       # What read queue length does an incoming req see
system.mem_ctrls.rdQLenPdf::7                     129                       # What read queue length does an incoming req see
system.mem_ctrls.rdQLenPdf::8                      97                       # What read queue length does an incoming req see
system.mem_ctrls.rdQLenPdf::9                      94                       # What read queue length does an incoming req see
system.mem_ctrls.rdQLenPdf::10                    112                       # What read queue length does an incoming req see
system.mem_ctrls.rdQLenPdf::11                    113                       # What read queue length does an incoming req see
system.mem_ctrls.rdQLenPdf::12                     89                       # What read queue length does an incoming req see
system.mem_ctrls.rdQLenPdf::13                     86                       # What read queue length does an incoming req see
system.mem_ctrls.rdQLenPdf::14                     80                       # What read queue length does an incoming req see
system.mem_ctrls.rdQLenPdf::15                     80                       # What read queue length does an incoming req see
system.mem_ctrls.rdQLenPdf::16                     74                       # What read queue length does an incoming req see
system.mem_ctrls.rdQLenPdf::17                     74                       # What read queue length does an incoming req see
system.mem_ctrls.rdQLenPdf::18                     68                       # What read queue length does an incoming req see
system.mem_ctrls.rdQLenPdf::19                     68                       # What read queue length does an incoming req see
system.mem_ctrls.rdQLenPdf::20                      0                       # What read queue length does an incoming req see
system.mem_ctrls.rdQLenPdf::21                      0                       # What read queue length does an incoming req see
system.mem_ctrls.rdQLenPdf::22                      0                       # What read queue length does an incoming req see
system.mem_ctrls.rdQLenPdf::23                      0                       # What read queue length does an incoming req see
system.mem_ctrls.rdQLenPdf::24                      0                       # What read queue length does an incoming req see
system.mem_ctrls.rdQLenPdf::25                      0                       # What read queue length does an incoming req see
system.mem_ctrls.rdQLenPdf::26                      0                       # What read queue length does an incoming req see
system.mem_ctrls.rdQLenPdf::27                      0                       # What read queue length does an incoming req see
system.mem_ctrls.rdQLenPdf::28                      0                       # What read queue length does an incoming req see
system.mem_ctrls.rdQLenPdf::29                      0                       # What read queue length does an incoming req see
system.mem_ctrls.rdQLenPdf::30                      0                       # What read queue length does an incoming req see
system.mem_ctrls.rdQLenPdf::31                      0                       # What read queue length does an incoming req see
system.mem_ctrls.wrQLenPdf::0                       1                       # What write queue length does an incoming req see
system.mem_ctrls.wrQLenPdf::1                       1                       # What write queue length does an incoming req see
system.mem_ctrls.wrQLenPdf::2                       1                       # What write queue length does an incoming req see
system.mem_ctrls.wrQLenPdf::3                       1                       # What write queue length does an incoming req see
system.mem_ctrls.wrQLenPdf::4                       1                       # What write queue length does an incoming req see
system.mem_ctrls.wrQLenPdf::5                       1                       # What write queue length does an incoming req see
system.mem_ctrls.wrQLenPdf::6                       1                       # What write queue length does an incoming req see
system.mem_ctrls.wrQLenPdf::7                       1                       # What write queue length does an incoming req see
system.mem_ctrls.wrQLenPdf::8                       1                       # What write queue length does an incoming req see
system.mem_ctrls.wrQLenPdf::9                       1                       # What write queue length does an incoming req see
system.mem_ctrls.wrQLenPdf::10                      1                       # What write queue length does an incoming req see
system.mem_ctrls.wrQLenPdf::11                      1                       # What write queue length does an incoming req see
system.mem_ctrls.wrQLenPdf::12                      1                       # What write queue length does an incoming req see
system.mem_ctrls.wrQLenPdf::13                      1                       # What write queue length does an incoming req see
system.mem_ctrls.wrQLenPdf::14                      1                       # What write queue length does an incoming req see
system.mem_ctrls.wrQLenPdf::15                     14                       # What write queue length does an incoming req see
system.mem_ctrls.wrQLenPdf::16                     14                       # What write queue length does an incoming req see
system.mem_ctrls.wrQLenPdf::17                     32                       # What write queue length does an incoming req see
system.mem_ctrls.wrQLenPdf::18                     49                       # What write queue length does an incoming req see
system.mem_ctrls.wrQLenPdf::19                     51                       # What write queue length does an incoming req see
system.mem_ctrls.wrQLenPdf::20                     51                       # What write queue length does an incoming req see
system.mem_ctrls.wrQLenPdf::21                     51                       # What write queue length does an incoming req see
system.mem_ctrls.wrQLenPdf::22                     52                       # What write queue length does an incoming req see
system.mem_ctrls.wrQLenPdf::23                     51                       # What write queue length does an incoming req see
system.mem_ctrls.wrQLenPdf::24                     51                       # What write queue length does an incoming req see
system.mem_ctrls.wrQLenPdf::25                     51                       # What write queue length does an incoming req see
system.mem_ctrls.wrQLenPdf::26                     50                       # What write queue length does an incoming req see
system.mem_ctrls.wrQLenPdf::27                     50                       # What write queue length does an incoming req see
system.mem_ctrls.wrQLenPdf::28                     50                       # What write queue length does an incoming req see
system.mem_ctrls.wrQLenPdf::29                     50                       # What write queue length does an incoming req see
system.mem_ctrls.wrQLenPdf::30                     50                       # What write queue length does an incoming req see
system.mem_ctrls.wrQLenPdf::31                     50                       # What write queue length does an incoming req see
system.mem_ctrls.wrQLenPdf::32                     52                       # What write queue length does an incoming req see
system.mem_ctrls.wrQLenPdf::33                     25                       # What write queue length does an incoming req see
system.mem_ctrls.wrQLenPdf::34                      1                       # What write queue length does an incoming req see
system.mem_ctrls.wrQLenPdf::35                      0                       # What write queue length does an incoming req see
system.mem_ctrls.wrQLenPdf::36                      0                       # What write queue length does an incoming req see
system.mem_ctrls.wrQLenPdf::37                      0                       # What write queue length does an incoming req see
system.mem_ctrls.wrQLenPdf::38                      0                       # What write queue length does an incoming req see
system.mem_ctrls.wrQLenPdf::39                      0                       # What write queue length does an incoming req see
system.mem_ctrls.wrQLenPdf::40                      0                       # What write queue length does an incoming req see
system.mem_ctrls.wrQLenPdf::41                      0                       # What write queue length does an incoming req see
system.mem_ctrls.wrQLenPdf::42                      0                       # What write queue length does an incoming req see
system.mem_ctrls.wrQLenPdf::43                      0                       # What write queue length does an incoming req see
system.mem_ctrls.wrQLenPdf::44                      0                       # What write queue length does an incoming req see
system.mem_ctrls.wrQLenPdf::45                      0                       # What write queue length does an incoming req see
system.mem_ctrls.wrQLenPdf::46                      0                       # What write queue length does an incoming req see
system.mem_ctrls.wrQLenPdf::47                      0                       # What write queue length does an incoming req see
system.mem_ctrls.wrQLenPdf::48                      0                       # What write queue length does an incoming req see
system.mem_ctrls.wrQLenPdf::49                      0                       # What write queue length does an incoming req see
system.mem_ctrls.wrQLenPdf::50                      0                       # What write queue length does an incoming req see
system.mem_ctrls.wrQLenPdf::51                      0                       # What write queue length does an incoming req see
system.mem_ctrls.wrQLenPdf::52                      0                       # What write queue length does an incoming req see
system.mem_ctrls.wrQLenPdf::53                      0                       # What write queue length does an incoming req see
system.mem_ctrls.wrQLenPdf::54                      0                       # What write queue length does an incoming req see
system.mem_ctrls.wrQLenPdf::55                      0                       # What write queue length does an incoming req see
system.mem_ctrls.wrQLenPdf::56                      0                       # What write queue length does an incoming req see
system.mem_ctrls.wrQLenPdf::57                      0                       # What write queue length does an incoming req see
system.mem_ctrls.wrQLenPdf::58                      0                       # What write queue length does an incoming req see
system.mem_ctrls.wrQLenPdf::59                      0                       # What write queue length does an incoming req see
system.mem_ctrls.wrQLenPdf::60                      0                       # What write queue length does an incoming req see
system.mem_ctrls.wrQLenPdf::61                      0                       # What write queue length does an incoming req see
system.mem_ctrls.wrQLenPdf::62                      0                       # What write queue length does an incoming req see
system.mem_ctrls.wrQLenPdf::63                      0                       # What write queue length does an incoming req see
system.mem_ctrls.bytesPerActivate::samples         2752                       # Bytes accessed per row activation
system.mem_ctrls.bytesPerActivate::mean    181.476744                       # Bytes accessed per row activation
system.mem_ctrls.bytesPerActivate::gmean   129.637337                       # Bytes accessed per row activation
system.mem_ctrls.bytesPerActivate::stdev   159.127993                       # Bytes accessed per row activation
system.mem_ctrls.bytesPerActivate::0-63            13      0.47%      0.47% # Bytes accessed per row activation
system.mem_ctrls.bytesPerActivate::64-127         1295     47.06%     47.53% # Bytes accessed per row activation
system.mem_ctrls.bytesPerActivate::128-191          478     17.37%     64.90% # Bytes accessed per row activation
system.mem_ctrls.bytesPerActivate::192-255          223      8.10%     73.00% # Bytes accessed per row activation
system.mem_ctrls.bytesPerActivate::256-319          148      5.38%     78.38% # Bytes accessed per row activation
system.mem_ctrls.bytesPerActivate::320-383           90      3.27%     81.65% # Bytes accessed per row activation
system.mem_ctrls.bytesPerActivate::384-447           68      2.47%     84.12% # Bytes accessed per row activation
system.mem_ctrls.bytesPerActivate::448-511           77      2.80%     86.92% # Bytes accessed per row activation
system.mem_ctrls.bytesPerActivate::512-575          360     13.08%    100.00% # Bytes accessed per row activation
system.mem_ctrls.bytesPerActivate::total         2752                       # Bytes accessed per row activation
system.mem_ctrls.rdPerTurnAround::samples           50                       # Reads before turning the bus around for writes
system.mem_ctrls.rdPerTurnAround::mean     294.120000                       # Reads before turning the bus around for writes
system.mem_ctrls.rdPerTurnAround::gmean    177.330514                       # Reads before turning the bus around for writes
system.mem_ctrls.rdPerTurnAround::stdev    231.123753                       # Reads before turning the bus around for writes
system.mem_ctrls.rdPerTurnAround::0-31              9     18.00%     18.00% # Reads before turning the bus around for writes
system.mem_ctrls.rdPerTurnAround::32-63             2      4.00%     22.00% # Reads before turning the bus around for writes
system.mem_ctrls.rdPerTurnAround::64-95             2      4.00%     26.00% # Reads before turning the bus around for writes
system.mem_ctrls.rdPerTurnAround::96-127            5     10.00%     36.00% # Reads before turning the bus around for writes
system.mem_ctrls.rdPerTurnAround::160-191            2      4.00%     40.00% # Reads before turning the bus around for writes
system.mem_ctrls.rdPerTurnAround::192-223            2      4.00%     44.00% # Reads before turning the bus around for writes
system.mem_ctrls.rdPerTurnAround::224-255            3      6.00%     50.00% # Reads before turning the bus around for writes
system.mem_ctrls.rdPerTurnAround::256-287            2      4.00%     54.00% # Reads before turning the bus around for writes
system.mem_ctrls.rdPerTurnAround::288-319            2      4.00%     58.00% # Reads before turning the bus around for writes
system.mem_ctrls.rdPerTurnAround::320-351            2      4.00%     62.00% # Reads before turning the bus around for writes
system.mem_ctrls.rdPerTurnAround::416-447            3      6.00%     68.00% # Reads before turning the bus around for writes
system.mem_ctrls.rdPerTurnAround::448-479            7     14.00%     82.00% # Reads before turning the bus around for writes
system.mem_ctrls.rdPerTurnAround::480-511            1      2.00%     84.00% # Reads before turning the bus around for writes
system.mem_ctrls.rdPerTurnAround::512-543            1      2.00%     86.00% # Reads before turning the bus around for writes
system.mem_ctrls.rdPerTurnAround::544-575            3      6.00%     92.00% # Reads before turning the bus around for writes
system.mem_ctrls.rdPerTurnAround::704-735            1      2.00%     94.00% # Reads before turning the bus around for writes
system.mem_ctrls.rdPerTurnAround::736-767            2      4.00%     98.00% # Reads before turning the bus around for writes
system.mem_ctrls.rdPerTurnAround::896-927            1      2.00%    100.00% # Reads before turning the bus around for writes
system.mem_ctrls.rdPerTurnAround::total            50                       # Reads before turning the bus around for writes
system.mem_ctrls.wrPerTurnAround::samples           50                       # Writes before turning the bus around for reads
system.mem_ctrls.wrPerTurnAround::mean      16.740000                       # Writes before turning the bus around for reads
system.mem_ctrls.wrPerTurnAround::gmean     16.682707                       # Writes before turning the bus around for reads
system.mem_ctrls.wrPerTurnAround::stdev      1.495708                       # Writes before turning the bus around for reads
system.mem_ctrls.wrPerTurnAround::16               37     74.00%     74.00% # Writes before turning the bus around for reads
system.mem_ctrls.wrPerTurnAround::18                7     14.00%     88.00% # Writes before turning the bus around for reads
system.mem_ctrls.wrPerTurnAround::19                5     10.00%     98.00% # Writes before turning the bus around for reads
system.mem_ctrls.wrPerTurnAround::24                1      2.00%    100.00% # Writes before turning the bus around for reads
system.mem_ctrls.wrPerTurnAround::total            50                       # Writes before turning the bus around for reads
system.mem_ctrls.totQLat                    469423219                       # Total ticks spent queuing
system.mem_ctrls.totMemAccLat               765223219                       # Total ticks spent from burst creation until serviced by the DRAM
system.mem_ctrls.totBusLat                   73950000                       # Total ticks spent in databus transfers
system.mem_ctrls.avgQLat                     31739.23                       # Average queueing delay per DRAM burst
system.mem_ctrls.avgBusLat                    5000.00                       # Average bus latency per DRAM burst
system.mem_ctrls.avgMemAccLat                51739.23                       # Average memory access latency per DRAM burst
system.mem_ctrls.avgRdBW                       819.10                       # Average DRAM read bandwidth in MiByte/s
system.mem_ctrls.avgWrBW                        46.35                       # Average achieved write bandwidth in MiByte/s
system.mem_ctrls.avgRdBWSys                    863.63                       # Average system read bandwidth in MiByte/s
system.mem_ctrls.avgWrBWSys                     77.53                       # Average system write bandwidth in MiByte/s
system.mem_ctrls.peakBW                       6400.00                       # Theoretical peak bandwidth in MiByte/s
system.mem_ctrls.busUtil                        13.52                       # Data bus utilization in percentage
system.mem_ctrls.busUtilRead                    12.80                       # Data bus utilization in percentage for reads
system.mem_ctrls.busUtilWrite                    0.72                       # Data bus utilization in percentage for writes
system.mem_ctrls.avgRdQLen                       3.22                       # Average read queue length when enqueuing
system.mem_ctrls.avgWrQLen                      26.04                       # Average write queue length when enqueuing
system.mem_ctrls.readRowHits                    12116                       # Number of row buffer hits during reads
system.mem_ctrls.writeRowHits                     753                       # Number of row buffer hits during writes
system.mem_ctrls.readRowHitRate                 81.92                       # Row buffer hit rate for reads
system.mem_ctrls.writeRowHitRate                87.56                       # Row buffer hit rate for writes
system.mem_ctrls.avgGap                      67985.82                       # Average gap between requests
system.mem_ctrls.pageHitRate                    82.23                       # Row buffer hit rate, read and write combined
system.mem_ctrls_0.actEnergy                  4923030                       # Energy for activate commands per rank (pJ)
system.mem_ctrls_0.preEnergy             2589081.600000                       # Energy for precharge commands per rank (pJ)
system.mem_ctrls_0.readEnergy                17393040                       # Energy for read commands per rank (pJ)
system.mem_ctrls_0.writeEnergy                 783432                       # Energy for write commands per rank (pJ)
system.mem_ctrls_0.refreshEnergy              3578640                       # Energy for refresh commands per rank (pJ)
system.mem_ctrls_0.actBackEnergy         12461026.500000                       # Energy for active background per rank (pJ)
system.mem_ctrls_0.preBackEnergy         220932.000000                       # Energy for precharge background per rank (pJ)
system.mem_ctrls_0.actPowerDownEnergy    4541783.100000                       # Energy for active power-down per rank (pJ)
system.mem_ctrls_0.prePowerDownEnergy            5283                       # Energy for precharge power-down per rank (pJ)
system.mem_ctrls_0.selfRefreshEnergy                0                       # Energy for self refresh per rank (pJ)
system.mem_ctrls_0.totalEnergy           46496248.200000                       # Total energy per rank (pJ)
system.mem_ctrls_0.averagePower             80.470305                       # Core power per rank (mW)
system.mem_ctrls_0.totalIdleTime            290362470                       # Total Idle time Per DRAM Rank
system.mem_ctrls_0.memoryStateTime::IDLE       731662                       # Time in different power states
system.mem_ctrls_0.memoryStateTime::REF      19240000                       # Time in different power states
system.mem_ctrls_0.memoryStateTime::SREF            0                       # Time in different power states
system.mem_ctrls_0.memoryStateTime::PRE_PDN      1468770                       # Time in different power states
system.mem_ctrls_0.memoryStateTime::ACT     267421534                       # Time in different power states
system.mem_ctrls_0.memoryStateTime::ACT_PDN    288944319                       # Time in different power states
system.pwrStateResidencyTicks::UNDEFINED    577806285                       # Cumulative time (in ticks) in various power states
system.cpu.branchPred.lookups                   16374                       # Number of BP lookups
system.cpu.branchPred.condPredicted              8543                       # Number of conditional branches predicted
system.cpu.branchPred.condIncorrect              1932                       # Number of conditional branches incorrect
system.cpu.branchPred.BTBLookups                 7126                       # Number of BTB lookups
system.cpu.branchPred.BTBHits                    4968                       # Number of BTB hits
system.cpu.branchPred.BTBCorrect                    0                       # Number of correct BTB predictions (this stat may not work properly.
system.cpu.branchPred.BTBHitPct             69.716531                       # BTB Hit Percentage
system.cpu.branchPred.usedRAS                    2965                       # Number of times the RAS was used to get a target.
system.cpu.branchPred.RASInCorrect                785                       # Number of incorrect RAS predictions.
system.cpu.branchPred.indirectLookups             695                       # Number of indirect predictor lookups.
system.cpu.branchPred.indirectHits                444                       # Number of indirect target hits.
system.cpu.branchPred.indirectMisses              251                       # Number of indirect misses.
system.cpu.branchPredindirectMispredicted          105                       # Number of mispredicted indirect branches.
system.cpu_voltage_domain.voltage                   1                       # Voltage in Volts
system.cpu_clk_domain.clock                       833                       # Clock period in ticks
system.cpu.dstage2_mmu.stage2_tlb.walker.pwrStateResidencyTicks::UNDEFINED    577806285                       # Cumulative time (in ticks) in various power states
system.cpu.dstage2_mmu.stage2_tlb.walker.walks            0                       # Table walker walks requested
system.cpu.dstage2_mmu.stage2_tlb.walker.walkRequestOrigin_Requested::Data            0                       # Table walker requests started/completed, data/inst
system.cpu.dstage2_mmu.stage2_tlb.walker.walkRequestOrigin_Requested::Inst            0                       # Table walker requests started/completed, data/inst
system.cpu.dstage2_mmu.stage2_tlb.walker.walkRequestOrigin_Requested::total            0                       # Table walker requests started/completed, data/inst
system.cpu.dstage2_mmu.stage2_tlb.walker.walkRequestOrigin_Completed::Data            0                       # Table walker requests started/completed, data/inst
system.cpu.dstage2_mmu.stage2_tlb.walker.walkRequestOrigin_Completed::Inst            0                       # Table walker requests started/completed, data/inst
system.cpu.dstage2_mmu.stage2_tlb.walker.walkRequestOrigin_Completed::total            0                       # Table walker requests started/completed, data/inst
system.cpu.dstage2_mmu.stage2_tlb.walker.walkRequestOrigin::total            0                       # Table walker requests started/completed, data/inst
system.cpu.dstage2_mmu.stage2_tlb.inst_hits            0                       # ITB inst hits
system.cpu.dstage2_mmu.stage2_tlb.inst_misses            0                       # ITB inst misses
system.cpu.dstage2_mmu.stage2_tlb.read_hits            0                       # DTB read hits
system.cpu.dstage2_mmu.stage2_tlb.read_misses            0                       # DTB read misses
system.cpu.dstage2_mmu.stage2_tlb.write_hits            0                       # DTB write hits
system.cpu.dstage2_mmu.stage2_tlb.write_misses            0                       # DTB write misses
system.cpu.dstage2_mmu.stage2_tlb.flush_tlb            0                       # Number of times complete TLB was flushed
system.cpu.dstage2_mmu.stage2_tlb.flush_tlb_mva            0                       # Number of times TLB was flushed by MVA
system.cpu.dstage2_mmu.stage2_tlb.flush_tlb_mva_asid            0                       # Number of times TLB was flushed by MVA & ASID
system.cpu.dstage2_mmu.stage2_tlb.flush_tlb_asid            0                       # Number of times TLB was flushed by ASID
system.cpu.dstage2_mmu.stage2_tlb.flush_entries            0                       # Number of entries that have been flushed from TLB
system.cpu.dstage2_mmu.stage2_tlb.align_faults            0                       # Number of TLB faults due to alignment restrictions
system.cpu.dstage2_mmu.stage2_tlb.prefetch_faults            0                       # Number of TLB faults due to prefetch
system.cpu.dstage2_mmu.stage2_tlb.domain_faults            0                       # Number of TLB faults due to domain restrictions
system.cpu.dstage2_mmu.stage2_tlb.perms_faults            0                       # Number of TLB faults due to permissions restrictions
system.cpu.dstage2_mmu.stage2_tlb.read_accesses            0                       # DTB read accesses
system.cpu.dstage2_mmu.stage2_tlb.write_accesses            0                       # DTB write accesses
system.cpu.dstage2_mmu.stage2_tlb.inst_accesses            0                       # ITB inst accesses
system.cpu.dstage2_mmu.stage2_tlb.hits              0                       # DTB hits
system.cpu.dstage2_mmu.stage2_tlb.misses            0                       # DTB misses
system.cpu.dstage2_mmu.stage2_tlb.accesses            0                       # DTB accesses
system.cpu.dtb.walker.pwrStateResidencyTicks::UNDEFINED    577806285                       # Cumulative time (in ticks) in various power states
system.cpu.dtb.walker.walks                         0                       # Table walker walks requested
system.cpu.dtb.walker.walkRequestOrigin_Requested::Data            0                       # Table walker requests started/completed, data/inst
system.cpu.dtb.walker.walkRequestOrigin_Requested::Inst            0                       # Table walker requests started/completed, data/inst
system.cpu.dtb.walker.walkRequestOrigin_Requested::total            0                       # Table walker requests started/completed, data/inst
system.cpu.dtb.walker.walkRequestOrigin_Completed::Data            0                       # Table walker requests started/completed, data/inst
system.cpu.dtb.walker.walkRequestOrigin_Completed::Inst            0                       # Table walker requests started/completed, data/inst
system.cpu.dtb.walker.walkRequestOrigin_Completed::total            0                       # Table walker requests started/completed, data/inst
system.cpu.dtb.walker.walkRequestOrigin::total            0                       # Table walker requests started/completed, data/inst
system.cpu.dtb.inst_hits                            0                       # ITB inst hits
system.cpu.dtb.inst_misses                          0                       # ITB inst misses
system.cpu.dtb.read_hits                            0                       # DTB read hits
system.cpu.dtb.read_misses                          0                       # DTB read misses
system.cpu.dtb.write_hits                           0                       # DTB write hits
system.cpu.dtb.write_misses                         0                       # DTB write misses
system.cpu.dtb.flush_tlb                            0                       # Number of times complete TLB was flushed
system.cpu.dtb.flush_tlb_mva                        0                       # Number of times TLB was flushed by MVA
system.cpu.dtb.flush_tlb_mva_asid                   0                       # Number of times TLB was flushed by MVA & ASID
system.cpu.dtb.flush_tlb_asid                       0                       # Number of times TLB was flushed by ASID
system.cpu.dtb.flush_entries                        0                       # Number of entries that have been flushed from TLB
system.cpu.dtb.align_faults                         0                       # Number of TLB faults due to alignment restrictions
system.cpu.dtb.prefetch_faults                      0                       # Number of TLB faults due to prefetch
system.cpu.dtb.domain_faults                        0                       # Number of TLB faults due to domain restrictions
system.cpu.dtb.perms_faults                         0                       # Number of TLB faults due to permissions restrictions
system.cpu.dtb.read_accesses                        0                       # DTB read accesses
system.cpu.dtb.write_accesses                       0                       # DTB write accesses
system.cpu.dtb.inst_accesses                        0                       # ITB inst accesses
system.cpu.dtb.hits                                 0                       # DTB hits
system.cpu.dtb.misses                               0                       # DTB misses
system.cpu.dtb.accesses                             0                       # DTB accesses
system.cpu.istage2_mmu.stage2_tlb.walker.pwrStateResidencyTicks::UNDEFINED    577806285                       # Cumulative time (in ticks) in various power states
system.cpu.istage2_mmu.stage2_tlb.walker.walks            0                       # Table walker walks requested
system.cpu.istage2_mmu.stage2_tlb.walker.walkRequestOrigin_Requested::Data            0                       # Table walker requests started/completed, data/inst
system.cpu.istage2_mmu.stage2_tlb.walker.walkRequestOrigin_Requested::Inst            0                       # Table walker requests started/completed, data/inst
system.cpu.istage2_mmu.stage2_tlb.walker.walkRequestOrigin_Requested::total            0                       # Table walker requests started/completed, data/inst
system.cpu.istage2_mmu.stage2_tlb.walker.walkRequestOrigin_Completed::Data            0                       # Table walker requests started/completed, data/inst
system.cpu.istage2_mmu.stage2_tlb.walker.walkRequestOrigin_Completed::Inst            0                       # Table walker requests started/completed, data/inst
system.cpu.istage2_mmu.stage2_tlb.walker.walkRequestOrigin_Completed::total            0                       # Table walker requests started/completed, data/inst
system.cpu.istage2_mmu.stage2_tlb.walker.walkRequestOrigin::total            0                       # Table walker requests started/completed, data/inst
system.cpu.istage2_mmu.stage2_tlb.inst_hits            0                       # ITB inst hits
system.cpu.istage2_mmu.stage2_tlb.inst_misses            0                       # ITB inst misses
system.cpu.istage2_mmu.stage2_tlb.read_hits            0                       # DTB read hits
system.cpu.istage2_mmu.stage2_tlb.read_misses            0                       # DTB read misses
system.cpu.istage2_mmu.stage2_tlb.write_hits            0                       # DTB write hits
system.cpu.istage2_mmu.stage2_tlb.write_misses            0                       # DTB write misses
system.cpu.istage2_mmu.stage2_tlb.flush_tlb            0                       # Number of times complete TLB was flushed
system.cpu.istage2_mmu.stage2_tlb.flush_tlb_mva            0                       # Number of times TLB was flushed by MVA
system.cpu.istage2_mmu.stage2_tlb.flush_tlb_mva_asid            0                       # Number of times TLB was flushed by MVA & ASID
system.cpu.istage2_mmu.stage2_tlb.flush_tlb_asid            0                       # Number of times TLB was flushed by ASID
system.cpu.istage2_mmu.stage2_tlb.flush_entries            0                       # Number of entries that have been flushed from TLB
system.cpu.istage2_mmu.stage2_tlb.align_faults            0                       # Number of TLB faults due to alignment restrictions
system.cpu.istage2_mmu.stage2_tlb.prefetch_faults            0                       # Number of TLB faults due to prefetch
system.cpu.istage2_mmu.stage2_tlb.domain_faults            0                       # Number of TLB faults due to domain restrictions
system.cpu.istage2_mmu.stage2_tlb.perms_faults            0                       # Number of TLB faults due to permissions restrictions
system.cpu.istage2_mmu.stage2_tlb.read_accesses            0                       # DTB read accesses
system.cpu.istage2_mmu.stage2_tlb.write_accesses            0                       # DTB write accesses
system.cpu.istage2_mmu.stage2_tlb.inst_accesses            0                       # ITB inst accesses
system.cpu.istage2_mmu.stage2_tlb.hits              0                       # DTB hits
system.cpu.istage2_mmu.stage2_tlb.misses            0                       # DTB misses
system.cpu.istage2_mmu.stage2_tlb.accesses            0                       # DTB accesses
system.cpu.itb.walker.pwrStateResidencyTicks::UNDEFINED    577806285                       # Cumulative time (in ticks) in various power states
system.cpu.itb.walker.walks                         0                       # Table walker walks requested
system.cpu.itb.walker.walkRequestOrigin_Requested::Data            0                       # Table walker requests started/completed, data/inst
system.cpu.itb.walker.walkRequestOrigin_Requested::Inst            0                       # Table walker requests started/completed, data/inst
system.cpu.itb.walker.walkRequestOrigin_Requested::total            0                       # Table walker requests started/completed, data/inst
system.cpu.itb.walker.walkRequestOrigin_Completed::Data            0                       # Table walker requests started/completed, data/inst
system.cpu.itb.walker.walkRequestOrigin_Completed::Inst            0                       # Table walker requests started/completed, data/inst
system.cpu.itb.walker.walkRequestOrigin_Completed::total            0                       # Table walker requests started/completed, data/inst
system.cpu.itb.walker.walkRequestOrigin::total            0                       # Table walker requests started/completed, data/inst
system.cpu.itb.inst_hits                            0                       # ITB inst hits
system.cpu.itb.inst_misses                          0                       # ITB inst misses
system.cpu.itb.read_hits                            0                       # DTB read hits
system.cpu.itb.read_misses                          0                       # DTB read misses
system.cpu.itb.write_hits                           0                       # DTB write hits
system.cpu.itb.write_misses                         0                       # DTB write misses
system.cpu.itb.flush_tlb                            0                       # Number of times complete TLB was flushed
system.cpu.itb.flush_tlb_mva                        0                       # Number of times TLB was flushed by MVA
system.cpu.itb.flush_tlb_mva_asid                   0                       # Number of times TLB was flushed by MVA & ASID
system.cpu.itb.flush_tlb_asid                       0                       # Number of times TLB was flushed by ASID
system.cpu.itb.flush_entries                        0                       # Number of entries that have been flushed from TLB
system.cpu.itb.align_faults                         0                       # Number of TLB faults due to alignment restrictions
system.cpu.itb.prefetch_faults                      0                       # Number of TLB faults due to prefetch
system.cpu.itb.domain_faults                        0                       # Number of TLB faults due to domain restrictions
system.cpu.itb.perms_faults                         0                       # Number of TLB faults due to permissions restrictions
system.cpu.itb.read_accesses                        0                       # DTB read accesses
system.cpu.itb.write_accesses                       0                       # DTB write accesses
system.cpu.itb.inst_accesses                        0                       # ITB inst accesses
system.cpu.itb.hits                                 0                       # DTB hits
system.cpu.itb.misses                               0                       # DTB misses
system.cpu.itb.accesses                             0                       # DTB accesses
system.cpu.workload.numSyscalls                    11                       # Number of system calls
system.cpu.pwrStateResidencyTicks::ON       577806285                       # Cumulative time (in ticks) in various power states
system.cpu.numCycles                           693646                       # number of cpu cycles simulated
system.cpu.numWorkItemsStarted                      0                       # number of work items this cpu started
system.cpu.numWorkItemsCompleted                    0                       # number of work items this cpu completed
system.cpu.fetch.icacheStallCycles             178536                       # Number of cycles fetch is stalled on an Icache miss
system.cpu.fetch.Insts                          86080                       # Number of instructions fetch has processed
system.cpu.fetch.Branches                       16374                       # Number of branches that fetch encountered
system.cpu.fetch.predictedBranches               8377                       # Number of branches that fetch has predicted taken
system.cpu.fetch.Cycles                        114569                       # Number of cycles fetch has run and was not squashing or blocked
system.cpu.fetch.SquashCycles                    4004                       # Number of cycles fetch has spent squashing
system.cpu.fetch.MiscStallCycles                  245                       # Number of cycles fetch has spent waiting on interrupts, or bad addresses, or out of MSHRs
system.cpu.fetch.PendingTrapStallCycles           476                       # Number of stall cycles due to pending traps
system.cpu.fetch.IcacheWaitRetryStallCycles         2028                       # Number of stall cycles due to full MSHR
system.cpu.fetch.CacheLines                     87950                       # Number of cache lines fetched
system.cpu.fetch.IcacheSquashes                  1072                       # Number of outstanding Icache misses that were squashed
system.cpu.fetch.rateDist::samples             297856                       # Number of instructions fetched each cycle (Total)
system.cpu.fetch.rateDist::mean              0.336488                       # Number of instructions fetched each cycle (Total)
system.cpu.fetch.rateDist::stdev             0.530035                       # Number of instructions fetched each cycle (Total)
system.cpu.fetch.rateDist::underflows               0      0.00%      0.00% # Number of instructions fetched each cycle (Total)
system.cpu.fetch.rateDist::0                   206220     69.23%     69.23% # Number of instructions fetched each cycle (Total)
system.cpu.fetch.rateDist::1                    83047     27.88%     97.12% # Number of instructions fetched each cycle (Total)
system.cpu.fetch.rateDist::2                     8589      2.88%    100.00% # Number of instructions fetched each cycle (Total)
system.cpu.fetch.rateDist::overflows                0      0.00%    100.00% # Number of instructions fetched each cycle (Total)
system.cpu.fetch.rateDist::min_value                0                       # Number of instructions fetched each cycle (Total)
system.cpu.fetch.rateDist::max_value                2                       # Number of instructions fetched each cycle (Total)
system.cpu.fetch.rateDist::total               297856                       # Number of instructions fetched each cycle (Total)
system.cpu.fetch.branchRate                  0.023606                       # Number of branch fetches per cycle
system.cpu.fetch.rate                        0.124098                       # Number of inst fetches per cycle
system.cpu.decode.IdleCycles                   134427                       # Number of cycles decode is idle
system.cpu.decode.BlockedCycles                 90684                       # Number of cycles decode is blocked
system.cpu.decode.RunCycles                     64770                       # Number of cycles decode is running
system.cpu.decode.UnblockCycles                  6449                       # Number of cycles decode is unblocking
system.cpu.decode.SquashCycles                   1526                       # Number of cycles decode is squashing
system.cpu.decode.BranchResolved                 5193                       # Number of times decode resolved a branch
system.cpu.decode.BranchMispred                   483                       # Number of times decode detected a branch misprediction
system.cpu.decode.DecodedInsts                  88905                       # Number of instructions handled by decode
system.cpu.decode.SquashedInsts                  2794                       # Number of squashed instructions handled by decode
system.cpu.rename.SquashCycles                   1526                       # Number of cycles rename is squashing
system.cpu.rename.IdleCycles                   143035                       # Number of cycles rename is idle
system.cpu.rename.BlockCycles                   35349                       # Number of cycles rename is blocking
system.cpu.rename.serializeStallCycles          24233                       # count of cycles rename stalled for serializing inst
system.cpu.rename.RunCycles                     61875                       # Number of cycles rename is running
system.cpu.rename.UnblockCycles                 31838                       # Number of cycles rename is unblocking
system.cpu.rename.RenamedInsts                  86694                       # Number of instructions processed by rename
system.cpu.rename.SquashedInsts                   970                       # Number of squashed instructions processed by rename
system.cpu.rename.ROBFullEvents                  3211                       # Number of times rename has blocked due to ROB full
system.cpu.rename.IQFullEvents                    579                       # Number of times rename has blocked due to IQ full
system.cpu.rename.LQFullEvents                  17546                       # Number of times rename has blocked due to LQ full
system.cpu.rename.SQFullEvents                   9923                       # Number of times rename has blocked due to SQ full
system.cpu.rename.RenamedOperands               85028                       # Number of destination operands rename has renamed
system.cpu.rename.RenameLookups                396413                       # Number of register rename lookups that rename has made
system.cpu.rename.int_rename_lookups            97710                       # Number of integer rename lookups
system.cpu.rename.fp_rename_lookups                16                       # Number of floating rename lookups
system.cpu.rename.CommittedMaps                 79379                       # Number of HB maps that are committed
system.cpu.rename.UndoneMaps                     5647                       # Number of HB maps that are undone due to squashing
system.cpu.rename.serializingInsts                320                       # count of serializing insts renamed
system.cpu.rename.tempSerializingInsts            320                       # count of temporary serializing insts renamed
system.cpu.rename.skidInsts                     12839                       # count of insts added to the skid buffer
system.cpu.memDep0.insertedLoads                19733                       # Number of loads inserted to the mem dependence unit.
system.cpu.memDep0.insertedStores               14165                       # Number of stores inserted to the mem dependence unit.
system.cpu.memDep0.conflictingLoads               872                       # Number of conflicting loads.
system.cpu.memDep0.conflictingStores               93                       # Number of conflicting stores.
system.cpu.iq.iqInstsAdded                      85398                       # Number of instructions added to the IQ (excludes non-spec)
system.cpu.iq.iqNonSpecInstsAdded                 632                       # Number of non-speculative instructions added to the IQ
system.cpu.iq.iqInstsIssued                     84829                       # Number of instructions issued
system.cpu.iq.iqSquashedInstsIssued                82                       # Number of squashed instructions issued
system.cpu.iq.iqSquashedInstsExamined            4057                       # Number of squashed instructions iterated over during squash; mainly for profiling
system.cpu.iq.iqSquashedOperandsExamined         9935                       # Number of squashed operands that are examined and possibly removed from graph
system.cpu.iq.iqSquashedNonSpecRemoved              2                       # Number of squashed non-spec instructions that were removed
system.cpu.iq.issued_per_cycle::samples        297856                       # Number of insts issued each cycle
system.cpu.iq.issued_per_cycle::mean         0.284799                       # Number of insts issued each cycle
system.cpu.iq.issued_per_cycle::stdev        0.559420                       # Number of insts issued each cycle
system.cpu.iq.issued_per_cycle::underflows            0      0.00%      0.00% # Number of insts issued each cycle
system.cpu.iq.issued_per_cycle::0              229299     76.98%     76.98% # Number of insts issued each cycle
system.cpu.iq.issued_per_cycle::1               52285     17.55%     94.54% # Number of insts issued each cycle
system.cpu.iq.issued_per_cycle::2               16272      5.46%    100.00% # Number of insts issued each cycle
system.cpu.iq.issued_per_cycle::overflows            0      0.00%    100.00% # Number of insts issued each cycle
system.cpu.iq.issued_per_cycle::min_value            0                       # Number of insts issued each cycle
system.cpu.iq.issued_per_cycle::max_value            2                       # Number of insts issued each cycle
system.cpu.iq.issued_per_cycle::total          297856                       # Number of insts issued each cycle
system.cpu.iq.fu_full::No_OpClass                   0      0.00%      0.00% # attempts to use FU when none available
system.cpu.iq.fu_full::IntAlu                       0      0.00%      0.00% # attempts to use FU when none available
system.cpu.iq.fu_full::IntMult                      0      0.00%      0.00% # attempts to use FU when none available
system.cpu.iq.fu_full::IntDiv                       0      0.00%      0.00% # attempts to use FU when none available
system.cpu.iq.fu_full::FloatAdd                     0      0.00%      0.00% # attempts to use FU when none available
system.cpu.iq.fu_full::FloatCmp                     0      0.00%      0.00% # attempts to use FU when none available
system.cpu.iq.fu_full::FloatCvt                     0      0.00%      0.00% # attempts to use FU when none available
system.cpu.iq.fu_full::FloatMult                    0      0.00%      0.00% # attempts to use FU when none available
system.cpu.iq.fu_full::FloatMultAcc                 0      0.00%      0.00% # attempts to use FU when none available
system.cpu.iq.fu_full::FloatDiv                     0      0.00%      0.00% # attempts to use FU when none available
system.cpu.iq.fu_full::FloatMisc                    0      0.00%      0.00% # attempts to use FU when none available
system.cpu.iq.fu_full::FloatSqrt                    0      0.00%      0.00% # attempts to use FU when none available
system.cpu.iq.fu_full::SimdAdd                      0      0.00%      0.00% # attempts to use FU when none available
system.cpu.iq.fu_full::SimdAddAcc                   0      0.00%      0.00% # attempts to use FU when none available
system.cpu.iq.fu_full::SimdAlu                      0      0.00%      0.00% # attempts to use FU when none available
system.cpu.iq.fu_full::SimdCmp                      0      0.00%      0.00% # attempts to use FU when none available
system.cpu.iq.fu_full::SimdCvt                      0      0.00%      0.00% # attempts to use FU when none available
system.cpu.iq.fu_full::SimdMisc                     0      0.00%      0.00% # attempts to use FU when none available
system.cpu.iq.fu_full::SimdMult                     0      0.00%      0.00% # attempts to use FU when none available
system.cpu.iq.fu_full::SimdMultAcc                  0      0.00%      0.00% # attempts to use FU when none available
system.cpu.iq.fu_full::SimdShift                    0      0.00%      0.00% # attempts to use FU when none available
system.cpu.iq.fu_full::SimdShiftAcc                 0      0.00%      0.00% # attempts to use FU when none available
system.cpu.iq.fu_full::SimdSqrt                     0      0.00%      0.00% # attempts to use FU when none available
system.cpu.iq.fu_full::SimdFloatAdd                 0      0.00%      0.00% # attempts to use FU when none available
system.cpu.iq.fu_full::SimdFloatAlu                 0      0.00%      0.00% # attempts to use FU when none available
system.cpu.iq.fu_full::SimdFloatCmp                 0      0.00%      0.00% # attempts to use FU when none available
system.cpu.iq.fu_full::SimdFloatCvt                 0      0.00%      0.00% # attempts to use FU when none available
system.cpu.iq.fu_full::SimdFloatDiv                 0      0.00%      0.00% # attempts to use FU when none available
system.cpu.iq.fu_full::SimdFloatMisc                0      0.00%      0.00% # attempts to use FU when none available
system.cpu.iq.fu_full::SimdFloatMult                0      0.00%      0.00% # attempts to use FU when none available
system.cpu.iq.fu_full::SimdFloatMultAcc             0      0.00%      0.00% # attempts to use FU when none available
system.cpu.iq.fu_full::SimdFloatSqrt                0      0.00%      0.00% # attempts to use FU when none available
system.cpu.iq.fu_full::MemRead                   1749     43.21%     43.21% # attempts to use FU when none available
system.cpu.iq.fu_full::MemWrite                  2296     56.72%     99.93% # attempts to use FU when none available
system.cpu.iq.fu_full::FloatMemRead                 0      0.00%     99.93% # attempts to use FU when none available
system.cpu.iq.fu_full::FloatMemWrite                3      0.07%    100.00% # attempts to use FU when none available
system.cpu.iq.fu_full::IprAccess                    0      0.00%    100.00% # attempts to use FU when none available
system.cpu.iq.fu_full::InstPrefetch                 0      0.00%    100.00% # attempts to use FU when none available
system.cpu.iq.FU_type_0::No_OpClass                39      0.05%      0.05% # Type of FU issued
system.cpu.iq.FU_type_0::IntAlu                 51414     60.61%     60.65% # Type of FU issued
system.cpu.iq.FU_type_0::IntMult                    7      0.01%     60.66% # Type of FU issued
system.cpu.iq.FU_type_0::IntDiv                     0      0.00%     60.66% # Type of FU issued
system.cpu.iq.FU_type_0::FloatAdd                   0      0.00%     60.66% # Type of FU issued
system.cpu.iq.FU_type_0::FloatCmp                   0      0.00%     60.66% # Type of FU issued
system.cpu.iq.FU_type_0::FloatCvt                   0      0.00%     60.66% # Type of FU issued
system.cpu.iq.FU_type_0::FloatMult                  0      0.00%     60.66% # Type of FU issued
system.cpu.iq.FU_type_0::FloatMultAcc               0      0.00%     60.66% # Type of FU issued
system.cpu.iq.FU_type_0::FloatDiv                   0      0.00%     60.66% # Type of FU issued
system.cpu.iq.FU_type_0::FloatMisc                  0      0.00%     60.66% # Type of FU issued
system.cpu.iq.FU_type_0::FloatSqrt                  0      0.00%     60.66% # Type of FU issued
system.cpu.iq.FU_type_0::SimdAdd                    0      0.00%     60.66% # Type of FU issued
system.cpu.iq.FU_type_0::SimdAddAcc                 0      0.00%     60.66% # Type of FU issued
system.cpu.iq.FU_type_0::SimdAlu                    0      0.00%     60.66% # Type of FU issued
system.cpu.iq.FU_type_0::SimdCmp                    0      0.00%     60.66% # Type of FU issued
system.cpu.iq.FU_type_0::SimdCvt                    0      0.00%     60.66% # Type of FU issued
system.cpu.iq.FU_type_0::SimdMisc                   0      0.00%     60.66% # Type of FU issued
system.cpu.iq.FU_type_0::SimdMult                   0      0.00%     60.66% # Type of FU issued
system.cpu.iq.FU_type_0::SimdMultAcc                0      0.00%     60.66% # Type of FU issued
system.cpu.iq.FU_type_0::SimdShift                  0      0.00%     60.66% # Type of FU issued
system.cpu.iq.FU_type_0::SimdShiftAcc               0      0.00%     60.66% # Type of FU issued
system.cpu.iq.FU_type_0::SimdSqrt                   0      0.00%     60.66% # Type of FU issued
system.cpu.iq.FU_type_0::SimdFloatAdd               0      0.00%     60.66% # Type of FU issued
system.cpu.iq.FU_type_0::SimdFloatAlu               0      0.00%     60.66% # Type of FU issued
system.cpu.iq.FU_type_0::SimdFloatCmp               0      0.00%     60.66% # Type of FU issued
system.cpu.iq.FU_type_0::SimdFloatCvt               0      0.00%     60.66% # Type of FU issued
system.cpu.iq.FU_type_0::SimdFloatDiv               0      0.00%     60.66% # Type of FU issued
system.cpu.iq.FU_type_0::SimdFloatMisc              0      0.00%     60.66% # Type of FU issued
system.cpu.iq.FU_type_0::SimdFloatMult              0      0.00%     60.66% # Type of FU issued
system.cpu.iq.FU_type_0::SimdFloatMultAcc            0      0.00%     60.66% # Type of FU issued
system.cpu.iq.FU_type_0::SimdFloatSqrt              0      0.00%     60.66% # Type of FU issued
system.cpu.iq.FU_type_0::MemRead                19310     22.76%     83.43% # Type of FU issued
system.cpu.iq.FU_type_0::MemWrite               14043     16.55%     99.98% # Type of FU issued
system.cpu.iq.FU_type_0::FloatMemRead               0      0.00%     99.98% # Type of FU issued
system.cpu.iq.FU_type_0::FloatMemWrite             16      0.02%    100.00% # Type of FU issued
system.cpu.iq.FU_type_0::IprAccess                  0      0.00%    100.00% # Type of FU issued
system.cpu.iq.FU_type_0::InstPrefetch               0      0.00%    100.00% # Type of FU issued
system.cpu.iq.FU_type_0::total                  84829                       # Type of FU issued
system.cpu.iq.rate                           0.122294                       # Inst issue rate
system.cpu.iq.fu_busy_cnt                        4048                       # FU busy when requested
system.cpu.iq.fu_busy_rate                   0.047720                       # FU busy rate (busy events/executed inst)
system.cpu.iq.int_inst_queue_reads             471608                       # Number of integer instruction queue reads
system.cpu.iq.int_inst_queue_writes             90093                       # Number of integer instruction queue writes
system.cpu.iq.int_inst_queue_wakeup_accesses        83678                       # Number of integer instruction queue wakeup accesses
system.cpu.iq.fp_inst_queue_reads                  35                       # Number of floating instruction queue reads
system.cpu.iq.fp_inst_queue_writes                 16                       # Number of floating instruction queue writes
system.cpu.iq.fp_inst_queue_wakeup_accesses           16                       # Number of floating instruction queue wakeup accesses
system.cpu.iq.vec_inst_queue_reads                  0                       # Number of vector instruction queue reads
system.cpu.iq.vec_inst_queue_writes                 0                       # Number of vector instruction queue writes
system.cpu.iq.vec_inst_queue_wakeup_accesses            0                       # Number of vector instruction queue wakeup accesses
system.cpu.iq.int_alu_accesses                  88819                       # Number of integer alu accesses
system.cpu.iq.fp_alu_accesses                      19                       # Number of floating point alu accesses
system.cpu.iq.vec_alu_accesses                      0                       # Number of vector alu accesses
system.cpu.iew.lsq.thread0.forwLoads             1712                       # Number of loads that had data forwarded from stores
system.cpu.iew.lsq.thread0.invAddrLoads             0                       # Number of loads ignored due to an invalid address
system.cpu.iew.lsq.thread0.squashedLoads         1280                       # Number of loads squashed
system.cpu.iew.lsq.thread0.ignoredResponses            1                       # Number of memory responses ignored because the instruction is squashed
system.cpu.iew.lsq.thread0.memOrderViolation           22                       # Number of memory ordering violations
system.cpu.iew.lsq.thread0.squashedStores          326                       # Number of stores squashed
system.cpu.iew.lsq.thread0.invAddrSwpfs             0                       # Number of software prefetches ignored due to an invalid address
system.cpu.iew.lsq.thread0.blockedLoads             0                       # Number of blocked loads due to partial load-store forwarding
system.cpu.iew.lsq.thread0.rescheduledLoads            0                       # Number of loads that were rescheduled
system.cpu.iew.lsq.thread0.cacheBlocked             0                       # Number of times an access to memory failed due to the cache being blocked
system.cpu.iew.iewIdleCycles                        0                       # Number of cycles IEW is idle
system.cpu.iew.iewSquashCycles                   1526                       # Number of cycles IEW is squashing
system.cpu.iew.iewBlockCycles                    1516                       # Number of cycles IEW is blocking
system.cpu.iew.iewUnblockCycles                 24589                       # Number of cycles IEW is unblocking
system.cpu.iew.iewDispatchedInsts               86030                       # Number of instructions dispatched to IQ
system.cpu.iew.iewDispSquashedInsts                 0                       # Number of squashed instructions skipped by dispatch
system.cpu.iew.iewDispLoadInsts                 19733                       # Number of dispatched load instructions
system.cpu.iew.iewDispStoreInsts                14165                       # Number of dispatched store instructions
system.cpu.iew.iewDispNonSpecInsts                321                       # Number of dispatched non-speculative instructions
system.cpu.iew.iewIQFullEvents                      3                       # Number of times the IQ has become full, causing a stall
system.cpu.iew.iewLSQFullEvents                 24390                       # Number of times the LSQ has become full, causing a stall
system.cpu.iew.memOrderViolationEvents             22                       # Number of memory order violations
system.cpu.iew.predictedTakenIncorrect            804                       # Number of branches that were predicted taken incorrectly
system.cpu.iew.predictedNotTakenIncorrect          702                       # Number of branches that were predicted not taken incorrectly
system.cpu.iew.branchMispredicts                 1506                       # Number of branch mispredicts detected at execute
system.cpu.iew.iewExecutedInsts                 83907                       # Number of executed instructions
system.cpu.iew.iewExecLoadInsts                 18771                       # Number of load instructions executed
system.cpu.iew.iewExecSquashedInsts               921                       # Number of squashed instructions skipped in execute
system.cpu.iew.exec_swp                             0                       # number of swp insts executed
system.cpu.iew.exec_nop                             0                       # number of nop insts executed
system.cpu.iew.exec_refs                        32746                       # number of memory reference insts executed
system.cpu.iew.exec_branches                    13207                       # Number of branches executed
system.cpu.iew.exec_stores                      13975                       # Number of stores executed
system.cpu.iew.exec_rate                     0.120965                       # Inst execution rate
system.cpu.iew.wb_sent                          83800                       # cumulative count of insts sent to commit
system.cpu.iew.wb_count                         83694                       # cumulative count of insts written-back
system.cpu.iew.wb_producers                     33153                       # num instructions producing a value
system.cpu.iew.wb_consumers                     43288                       # num instructions consuming a value
system.cpu.iew.wb_rate                       0.120658                       # insts written-back per cycle
system.cpu.iew.wb_fanout                     0.765870                       # average fanout of values written-back
system.cpu.commit.commitSquashedInsts            3389                       # The number of squashed insts skipped by commit
system.cpu.commit.commitNonSpecStalls             630                       # The number of times commit has been forced to stall to communicate backwards
system.cpu.commit.branchMispredicts              1492                       # The number of times a branch was mispredicted
system.cpu.commit.committed_per_cycle::samples       295424                       # Number of insts commited each cycle
system.cpu.commit.committed_per_cycle::mean     0.277469                       # Number of insts commited each cycle
system.cpu.commit.committed_per_cycle::stdev     0.600424                       # Number of insts commited each cycle
system.cpu.commit.committed_per_cycle::underflows            0      0.00%      0.00% # Number of insts commited each cycle
system.cpu.commit.committed_per_cycle::0       237091     80.25%     80.25% # Number of insts commited each cycle
system.cpu.commit.committed_per_cycle::1        34695     11.74%     92.00% # Number of insts commited each cycle
system.cpu.commit.committed_per_cycle::2        23638      8.00%    100.00% # Number of insts commited each cycle
system.cpu.commit.committed_per_cycle::overflows            0      0.00%    100.00% # Number of insts commited each cycle
system.cpu.commit.committed_per_cycle::min_value            0                       # Number of insts commited each cycle
system.cpu.commit.committed_per_cycle::max_value            2                       # Number of insts commited each cycle
system.cpu.commit.committed_per_cycle::total       295424                       # Number of insts commited each cycle
system.cpu.commit.committedInsts                70422                       # Number of instructions committed
system.cpu.commit.committedOps                  81971                       # Number of ops (including micro ops) committed
system.cpu.commit.swp_count                         0                       # Number of s/w prefetches committed
system.cpu.commit.refs                          32292                       # Number of memory references committed
system.cpu.commit.loads                         18453                       # Number of loads committed
system.cpu.commit.membars                         311                       # Number of memory barriers committed
system.cpu.commit.branches                      12836                       # Number of branches committed
system.cpu.commit.vec_insts                         0                       # Number of committed Vector instructions.
system.cpu.commit.fp_insts                         16                       # Number of committed floating point instructions.
system.cpu.commit.int_insts                     74181                       # Number of committed integer instructions.
system.cpu.commit.function_calls                 2269                       # Number of function calls committed.
system.cpu.commit.op_class_0::No_OpClass            0      0.00%      0.00% # Class of committed instruction
system.cpu.commit.op_class_0::IntAlu            49675     60.60%     60.60% # Class of committed instruction
system.cpu.commit.op_class_0::IntMult               4      0.00%     60.61% # Class of committed instruction
system.cpu.commit.op_class_0::IntDiv                0      0.00%     60.61% # Class of committed instruction
system.cpu.commit.op_class_0::FloatAdd              0      0.00%     60.61% # Class of committed instruction
system.cpu.commit.op_class_0::FloatCmp              0      0.00%     60.61% # Class of committed instruction
system.cpu.commit.op_class_0::FloatCvt              0      0.00%     60.61% # Class of committed instruction
system.cpu.commit.op_class_0::FloatMult             0      0.00%     60.61% # Class of committed instruction
system.cpu.commit.op_class_0::FloatMultAcc            0      0.00%     60.61% # Class of committed instruction
system.cpu.commit.op_class_0::FloatDiv              0      0.00%     60.61% # Class of committed instruction
system.cpu.commit.op_class_0::FloatMisc             0      0.00%     60.61% # Class of committed instruction
system.cpu.commit.op_class_0::FloatSqrt             0      0.00%     60.61% # Class of committed instruction
system.cpu.commit.op_class_0::SimdAdd               0      0.00%     60.61% # Class of committed instruction
system.cpu.commit.op_class_0::SimdAddAcc            0      0.00%     60.61% # Class of committed instruction
system.cpu.commit.op_class_0::SimdAlu               0      0.00%     60.61% # Class of committed instruction
system.cpu.commit.op_class_0::SimdCmp               0      0.00%     60.61% # Class of committed instruction
system.cpu.commit.op_class_0::SimdCvt               0      0.00%     60.61% # Class of committed instruction
system.cpu.commit.op_class_0::SimdMisc              0      0.00%     60.61% # Class of committed instruction
system.cpu.commit.op_class_0::SimdMult              0      0.00%     60.61% # Class of committed instruction
system.cpu.commit.op_class_0::SimdMultAcc            0      0.00%     60.61% # Class of committed instruction
system.cpu.commit.op_class_0::SimdShift             0      0.00%     60.61% # Class of committed instruction
system.cpu.commit.op_class_0::SimdShiftAcc            0      0.00%     60.61% # Class of committed instruction
system.cpu.commit.op_class_0::SimdSqrt              0      0.00%     60.61% # Class of committed instruction
system.cpu.commit.op_class_0::SimdFloatAdd            0      0.00%     60.61% # Class of committed instruction
system.cpu.commit.op_class_0::SimdFloatAlu            0      0.00%     60.61% # Class of committed instruction
system.cpu.commit.op_class_0::SimdFloatCmp            0      0.00%     60.61% # Class of committed instruction
system.cpu.commit.op_class_0::SimdFloatCvt            0      0.00%     60.61% # Class of committed instruction
system.cpu.commit.op_class_0::SimdFloatDiv            0      0.00%     60.61% # Class of committed instruction
system.cpu.commit.op_class_0::SimdFloatMisc            0      0.00%     60.61% # Class of committed instruction
system.cpu.commit.op_class_0::SimdFloatMult            0      0.00%     60.61% # Class of committed instruction
system.cpu.commit.op_class_0::SimdFloatMultAcc            0      0.00%     60.61% # Class of committed instruction
system.cpu.commit.op_class_0::SimdFloatSqrt            0      0.00%     60.61% # Class of committed instruction
system.cpu.commit.op_class_0::MemRead           18453     22.51%     83.12% # Class of committed instruction
system.cpu.commit.op_class_0::MemWrite          13823     16.86%     99.98% # Class of committed instruction
[...]
system.l2.ReadSharedReq_accesses::total            68                       # number of ReadSharedReq accesses(hits+misses)
system.l2.demand_accesses::cpu.inst               220                       # number of demand (read+write) accesses
system.l2.demand_accesses::cpu.data                75                       # number of demand (read+write) accesses
system.l2.demand_accesses::total                  295                       # number of demand (read+write) accesses
system.l2.overall_accesses::cpu.inst              220                       # number of overall (read+write) accesses
system.l2.overall_accesses::cpu.data               75                       # number of overall (read+write) accesses
system.l2.overall_accesses::total                 295                       # number of overall (read+write) accesses
system.l2.ReadExReq_miss_rate::cpu.data      0.571429                       # miss rate for ReadExReq accesses
system.l2.ReadExReq_miss_rate::total         0.571429                       # miss rate for ReadExReq accesses
system.l2.ReadCleanReq_miss_rate::cpu.inst     0.868182                       # miss rate for ReadCleanReq accesses
system.l2.ReadCleanReq_miss_rate::total      0.868182                       # miss rate for ReadCleanReq accesses
system.l2.ReadSharedReq_miss_rate::cpu.data     0.852941                       # miss rate for ReadSharedReq accesses
system.l2.ReadSharedReq_miss_rate::total     0.852941                       # miss rate for ReadSharedReq accesses
system.l2.demand_miss_rate::cpu.inst         0.868182                       # miss rate for demand accesses
system.l2.demand_miss_rate::cpu.data         0.826667                       # miss rate for demand accesses
system.l2.demand_miss_rate::total            0.857627                       # miss rate for demand accesses
system.l2.overall_miss_rate::cpu.inst        0.868182                       # miss rate for overall accesses
system.l2.overall_miss_rate::cpu.data        0.826667                       # miss rate for overall accesses
system.l2.overall_miss_rate::total           0.857627                       # miss rate for overall accesses
system.l2.ReadExReq_avg_miss_latency::cpu.data        79135                       # average ReadExReq miss latency
system.l2.ReadExReq_avg_miss_latency::total        79135                       # average ReadExReq miss latency
system.l2.ReadCleanReq_avg_miss_latency::cpu.inst 100374.319372                       # average ReadCleanReq miss latency
system.l2.ReadCleanReq_avg_miss_latency::total 100374.319372                       # average ReadCleanReq miss latency
system.l2.ReadSharedReq_avg_miss_latency::cpu.data 103148.379310                       # average ReadSharedReq miss latency
system.l2.ReadSharedReq_avg_miss_latency::total 103148.379310                       # average ReadSharedReq miss latency
system.l2.demand_avg_miss_latency::cpu.inst 100374.319372                       # average overall miss latency
system.l2.demand_avg_miss_latency::cpu.data 101599.129032                       # average overall miss latency
system.l2.demand_avg_miss_latency::total 100674.470356                       # average overall miss latency
system.l2.overall_avg_miss_latency::cpu.inst 100374.319372                       # average overall miss latency
system.l2.overall_avg_miss_latency::cpu.data 101599.129032                       # average overall miss latency
system.l2.overall_avg_miss_latency::total 100674.470356                       # average overall miss latency
system.l2.blocked_cycles::no_mshrs                  0                       # number of cycles access was blocked
system.l2.blocked_cycles::no_targets                0                       # number of cycles access was blocked
system.l2.blocked::no_mshrs                         0                       # number of cycles access was blocked
system.l2.blocked::no_targets                       0                       # number of cycles access was blocked
system.l2.avg_blocked_cycles::no_mshrs            nan                       # average number of cycles each access was blocked
system.l2.avg_blocked_cycles::no_targets          nan                       # average number of cycles each access was blocked
system.l2.writebacks::writebacks                   18                       # number of writebacks
system.l2.writebacks::total                        18                       # number of writebacks
system.l2.ReadSharedReq_mshr_hits::cpu.data            2                       # number of ReadSharedReq MSHR hits
system.l2.ReadSharedReq_mshr_hits::total            2                       # number of ReadSharedReq MSHR hits
system.l2.demand_mshr_hits::cpu.data                2                       # number of demand (read+write) MSHR hits
system.l2.demand_mshr_hits::total                   2                       # number of demand (read+write) MSHR hits
system.l2.overall_mshr_hits::cpu.data               2                       # number of overall MSHR hits
system.l2.overall_mshr_hits::total                  2                       # number of overall MSHR hits
system.l2.ReadExReq_mshr_misses::cpu.data            4                       # number of ReadExReq MSHR misses
system.l2.ReadExReq_mshr_misses::total              4                       # number of ReadExReq MSHR misses
system.l2.ReadCleanReq_mshr_misses::cpu.inst          191                       # number of ReadCleanReq MSHR misses
system.l2.ReadCleanReq_mshr_misses::total          191                       # number of ReadCleanReq MSHR misses
system.l2.ReadSharedReq_mshr_misses::cpu.data           56                       # number of ReadSharedReq MSHR misses
system.l2.ReadSharedReq_mshr_misses::total           56                       # number of ReadSharedReq MSHR misses
system.l2.demand_mshr_misses::cpu.inst            191                       # number of demand (read+write) MSHR misses
system.l2.demand_mshr_misses::cpu.data             60                       # number of demand (read+write) MSHR misses
system.l2.demand_mshr_misses::total               251                       # number of demand (read+write) MSHR misses
system.l2.overall_mshr_misses::cpu.inst           191                       # number of overall MSHR misses
system.l2.overall_mshr_misses::cpu.data            60                       # number of overall MSHR misses
system.l2.overall_mshr_misses::total              251                       # number of overall MSHR misses
system.l2.ReadExReq_mshr_miss_latency::cpu.data       274424                       # number of ReadExReq MSHR miss cycles
system.l2.ReadExReq_mshr_miss_latency::total       274424                       # number of ReadExReq MSHR miss cycles
system.l2.ReadCleanReq_mshr_miss_latency::cpu.inst     17197137                       # number of ReadCleanReq MSHR miss cycles
system.l2.ReadCleanReq_mshr_miss_latency::total     17197137                       # number of ReadCleanReq MSHR miss cycles
system.l2.ReadSharedReq_mshr_miss_latency::cpu.data      5239778                       # number of ReadSharedReq MSHR miss cycles
system.l2.ReadSharedReq_mshr_miss_latency::total      5239778                       # number of ReadSharedReq MSHR miss cycles
system.l2.demand_mshr_miss_latency::cpu.inst     17197137                       # number of demand (read+write) MSHR miss cycles
system.l2.demand_mshr_miss_latency::cpu.data      5514202                       # number of demand (read+write) MSHR miss cycles
system.l2.demand_mshr_miss_latency::total     22711339                       # number of demand (read+write) MSHR miss cycles
system.l2.overall_mshr_miss_latency::cpu.inst     17197137                       # number of overall MSHR miss cycles
system.l2.overall_mshr_miss_latency::cpu.data      5514202                       # number of overall MSHR miss cycles
system.l2.overall_mshr_miss_latency::total     22711339                       # number of overall MSHR miss cycles
system.l2.ReadExReq_mshr_miss_rate::cpu.data     0.571429                       # mshr miss rate for ReadExReq accesses
system.l2.ReadExReq_mshr_miss_rate::total     0.571429                       # mshr miss rate for ReadExReq accesses
system.l2.ReadCleanReq_mshr_miss_rate::cpu.inst     0.868182                       # mshr miss rate for ReadCleanReq accesses
system.l2.ReadCleanReq_mshr_miss_rate::total     0.868182                       # mshr miss rate for ReadCleanReq accesses
system.l2.ReadSharedReq_mshr_miss_rate::cpu.data     0.823529                       # mshr miss rate for ReadSharedReq accesses
system.l2.ReadSharedReq_mshr_miss_rate::total     0.823529                       # mshr miss rate for ReadSharedReq accesses
system.l2.demand_mshr_miss_rate::cpu.inst     0.868182                       # mshr miss rate for demand accesses
system.l2.demand_mshr_miss_rate::cpu.data     0.800000                       # mshr miss rate for demand accesses
system.l2.demand_mshr_miss_rate::total       0.850847                       # mshr miss rate for demand accesses
system.l2.overall_mshr_miss_rate::cpu.inst     0.868182                       # mshr miss rate for overall accesses
system.l2.overall_mshr_miss_rate::cpu.data     0.800000                       # mshr miss rate for overall accesses
system.l2.overall_mshr_miss_rate::total      0.850847                       # mshr miss rate for overall accesses
system.l2.ReadExReq_avg_mshr_miss_latency::cpu.data        68606                       # average ReadExReq mshr miss latency
system.l2.ReadExReq_avg_mshr_miss_latency::total        68606                       # average ReadExReq mshr miss latency
system.l2.ReadCleanReq_avg_mshr_miss_latency::cpu.inst 90037.366492                       # average ReadCleanReq mshr miss latency
system.l2.ReadCleanReq_avg_mshr_miss_latency::total 90037.366492                       # average ReadCleanReq mshr miss latency
system.l2.ReadSharedReq_avg_mshr_miss_latency::cpu.data 93567.464286                       # average ReadSharedReq mshr miss latency
system.l2.ReadSharedReq_avg_mshr_miss_latency::total 93567.464286                       # average ReadSharedReq mshr miss latency
system.l2.demand_avg_mshr_miss_latency::cpu.inst 90037.366492                       # average overall mshr miss latency
system.l2.demand_avg_mshr_miss_latency::cpu.data 91903.366667                       # average overall mshr miss latency
system.l2.demand_avg_mshr_miss_latency::total 90483.422311                       # average overall mshr miss latency
system.l2.overall_avg_mshr_miss_latency::cpu.inst 90037.366492                       # average overall mshr miss latency
system.l2.overall_avg_mshr_miss_latency::cpu.data 91903.366667                       # average overall mshr miss latency
system.l2.overall_avg_mshr_miss_latency::total 90483.422311                       # average overall mshr miss latency
system.membus.snoop_filter.tot_requests           489                       # Total number of requests made to the snoop filter.
system.membus.snoop_filter.hit_single_requests          251                       # Number of requests hitting in the snoop filter with a single holder of the requested data.
system.membus.snoop_filter.hit_multi_requests            0                       # Number of requests hitting in the snoop filter with multiple (>1) holders of the requested data.
system.membus.snoop_filter.tot_snoops               0                       # Total number of snoops made to the snoop filter.
system.membus.snoop_filter.hit_single_snoops            0                       # Number of snoops hitting in the snoop filter with a single holder of the requested data.
system.membus.snoop_filter.hit_multi_snoops            0                       # Number of snoops hitting in the snoop filter with multiple (>1) holders of the requested data.
system.membus.pwrStateResidencyTicks::UNDEFINED     21206514                       # Cumulative time (in ticks) in various power states
system.membus.trans_dist::ReadResp                246                       # Transaction distribution
system.membus.trans_dist::WritebackDirty           18                       # Transaction distribution
system.membus.trans_dist::CleanEvict              220                       # Transaction distribution
system.membus.trans_dist::ReadExReq                 4                       # Transaction distribution
system.membus.trans_dist::ReadExResp                4                       # Transaction distribution
system.membus.trans_dist::ReadCleanReq            247                       # Transaction distribution
system.membus.pkt_count_system.l2.mem_side::system.mem_ctrls.port          739                       # Packet count per connected master and slave (bytes)
system.membus.pkt_count::total                    739                       # Packet count per connected master and slave (bytes)
system.membus.pkt_size_system.l2.mem_side::system.mem_ctrls.port        17152                       # Cumulative packet size per connected master and slave (bytes)
system.membus.pkt_size::total                   17152                       # Cumulative packet size per connected master and slave (bytes)
system.membus.snoops                                0                       # Total snoops (count)
system.membus.snoopTraffic                          0                       # Total snoop traffic (bytes)
system.membus.snoop_fanout::samples               251                       # Request fanout histogram
system.membus.snoop_fanout::mean                    0                       # Request fanout histogram
system.membus.snoop_fanout::stdev                   0                       # Request fanout histogram
system.membus.snoop_fanout::underflows              0      0.00%      0.00% # Request fanout histogram
system.membus.snoop_fanout::0                     251    100.00%    100.00% # Request fanout histogram
system.membus.snoop_fanout::1                       0      0.00%    100.00% # Request fanout histogram
system.membus.snoop_fanout::overflows               0      0.00%    100.00% # Request fanout histogram
system.membus.snoop_fanout::min_value               0                       # Request fanout histogram
system.membus.snoop_fanout::max_value               0                       # Request fanout histogram
system.membus.snoop_fanout::total                 251                       # Request fanout histogram
system.membus.reqLayer0.occupancy              783742                       # Layer occupancy (ticks)
system.membus.reqLayer0.utilization               3.7                       # Layer utilization (%)
system.membus.respLayer1.occupancy            1363251                       # Layer occupancy (ticks)
system.membus.respLayer1.utilization              6.4                       # Layer utilization (%)
system.tol2bus.snoop_filter.tot_requests          589                       # Total number of requests made to the snoop filter.
system.tol2bus.snoop_filter.hit_single_requests          295                       # Number of requests hitting in the snoop filter with a single holder of the requested data.
system.tol2bus.snoop_filter.hit_multi_requests           14                       # Number of requests hitting in the snoop filter with multiple (>1) holders of the requested data.
system.tol2bus.snoop_filter.tot_snoops              0                       # Total number of snoops made to the snoop filter.
system.tol2bus.snoop_filter.hit_single_snoops            0                       # Number of snoops hitting in the snoop filter with a single holder of the requested data.
system.tol2bus.snoop_filter.hit_multi_snoops            0                       # Number of snoops hitting in the snoop filter with multiple (>1) holders of the requested data.
system.tol2bus.pwrStateResidencyTicks::UNDEFINED     21206514                       # Cumulative time (in ticks) in various power states
system.tol2bus.trans_dist::ReadResp               287                       # Transaction distribution
system.tol2bus.trans_dist::WritebackDirty           43                       # Transaction distribution
system.tol2bus.trans_dist::WritebackClean          269                       # Transaction distribution
system.tol2bus.trans_dist::CleanEvict             220                       # Transaction distribution
system.tol2bus.trans_dist::ReadExReq                7                       # Transaction distribution
system.tol2bus.trans_dist::ReadExResp               7                       # Transaction distribution
system.tol2bus.trans_dist::ReadCleanReq           220                       # Transaction distribution
system.tol2bus.trans_dist::ReadSharedReq           68                       # Transaction distribution
system.tol2bus.pkt_count_system.cpu.icache.mem_side::system.l2.cpu_side          658                       # Packet count per connected master and slave (bytes)
system.tol2bus.pkt_count_system.cpu.dcache.mem_side::system.l2.cpu_side          225                       # Packet count per connected master and slave (bytes)
system.tol2bus.pkt_count::total                   883                       # Packet count per connected master and slave (bytes)
system.tol2bus.pkt_size_system.cpu.icache.mem_side::system.l2.cpu_side        28032                       # Cumulative packet size per connected master and slave (bytes)
system.tol2bus.pkt_size_system.cpu.dcache.mem_side::system.l2.cpu_side         9600                       # Cumulative packet size per connected master and slave (bytes)
system.tol2bus.pkt_size::total                  37632                       # Cumulative packet size per connected master and slave (bytes)
system.tol2bus.snoops                             238                       # Total snoops (count)
system.tol2bus.snoopTraffic                      1152                       # Total snoop traffic (bytes)
system.tol2bus.snoop_fanout::samples              533                       # Request fanout histogram
system.tol2bus.snoop_fanout::mean            0.028143                       # Request fanout histogram
system.tol2bus.snoop_fanout::stdev           0.165535                       # Request fanout histogram
system.tol2bus.snoop_fanout::underflows             0      0.00%      0.00% # Request fanout histogram
system.tol2bus.snoop_fanout::0                    518     97.19%     97.19% # Request fanout histogram
system.tol2bus.snoop_fanout::1                     15      2.81%    100.00% # Request fanout histogram
system.tol2bus.snoop_fanout::2                      0      0.00%    100.00% # Request fanout histogram
system.tol2bus.snoop_fanout::3                      0      0.00%    100.00% # Request fanout histogram
system.tol2bus.snoop_fanout::4                      0      0.00%    100.00% # Request fanout histogram
system.tol2bus.snoop_fanout::overflows              0      0.00%    100.00% # Request fanout histogram
system.tol2bus.snoop_fanout::min_value              0                       # Request fanout histogram
system.tol2bus.snoop_fanout::max_value              1                       # Request fanout histogram
system.tol2bus.snoop_fanout::total                533                       # Request fanout histogram
system.tol2bus.reqLayer0.occupancy             980441                       # Layer occupancy (ticks)
system.tol2bus.reqLayer0.utilization              4.6                       # Layer utilization (%)
system.tol2bus.respLayer0.occupancy            547281                       # Layer occupancy (ticks)
system.tol2bus.respLayer0.utilization             2.6                       # Layer utilization (%)
system.tol2bus.respLayer1.occupancy            189089                       # Layer occupancy (ticks)
system.tol2bus.respLayer1.utilization             0.9                       # Layer utilization (%)

---------- End Simulation Statistics   ----------
